10
* (null), Energy   -1000.0000000
O    -1.522076   -1.792290    0.147298    0.021529   -0.521660   -0.293730
O    -1.522076    1.792290    0.147296    0.021529    0.521658   -0.293731
O     1.522077   -1.792289   -0.147298   -0.021526   -0.521656    0.293747
O     1.522077    1.792289   -0.147296   -0.021524    0.521655    0.293743
Si   -0.000000   -1.278539   -0.000001   -0.000001   -0.251393   -0.000005
Si    0.000000    1.278539   -0.000000    0.000000    0.251394   -0.000001
Mg   -2.182887   -0.000000   -0.350804   -0.396128   -0.000001   -0.163725
Mg    2.182887    0.000000    0.350806    0.396130    0.000000    0.163720
O    -0.292291   -0.000000   -1.172724   -0.947716    0.000000    0.370373
O     0.292290   -0.000000    1.172724    0.947705    0.000001   -0.370384
10
* Frequency(14)  398.3510
O    -1.519630   -1.851574    0.113917    0.021529   -0.521660   -0.293730
O    -1.519629    1.851573    0.113915    0.021529    0.521658   -0.293731
O     1.519630   -1.851572   -0.113915   -0.021526   -0.521656    0.293747
O     1.519631    1.851573   -0.113914   -0.021524    0.521655    0.293743
Si   -0.000000   -1.307109   -0.000001   -0.000001   -0.251393   -0.000005
Si    0.000000    1.307109   -0.000000    0.000000    0.251394   -0.000001
Mg   -2.227905   -0.000000   -0.369411   -0.396128   -0.000001   -0.163725
Mg    2.227905    0.000000    0.369412    0.396130    0.000000    0.163720
O    -0.399994   -0.000000   -1.130633   -0.947716    0.000000    0.370373
O     0.399992   -0.000000    1.130631    0.947705    0.000001   -0.370384
10
* Frequency(14)  398.3510
O    -1.517448   -1.904433    0.084153    0.021529   -0.521660   -0.293730
O    -1.517448    1.904433    0.084151    0.021529    0.521658   -0.293731
O     1.517449   -1.904431   -0.084150   -0.021526   -0.521656    0.293747
O     1.517449    1.904432   -0.084149   -0.021524    0.521655    0.293743
Si   -0.000000   -1.332582   -0.000002   -0.000001   -0.251393   -0.000005
Si    0.000000    1.332583   -0.000000    0.000000    0.251394   -0.000001
Mg   -2.268044   -0.000000   -0.386001   -0.396128   -0.000001   -0.163725
Mg    2.268045    0.000000    0.386001    0.396130    0.000000    0.163720
O    -0.496026   -0.000000   -1.093103   -0.947716    0.000000    0.370373
O     0.496022   -0.000000    1.093101    0.947705    0.000001   -0.370384
10
* Frequency(14)  398.3510
O    -1.515768   -1.945140    0.061233    0.021529   -0.521660   -0.293730
O    -1.515768    1.945140    0.061230    0.021529    0.521658   -0.293731
O     1.515769   -1.945138   -0.061228   -0.021526   -0.521656    0.293747
O     1.515770    1.945138   -0.061227   -0.021524    0.521655    0.293743
Si   -0.000000   -1.352199   -0.000002   -0.000001   -0.251393   -0.000005
Si    0.000000    1.352200   -0.000000    0.000000    0.251394   -0.000001
Mg   -2.298956   -0.000000   -0.398777   -0.396128   -0.000001   -0.163725
Mg    2.298957    0.000000    0.398777    0.396130    0.000000    0.163720
O    -0.569980   -0.000000   -1.064201   -0.947716    0.000000    0.370373
O     0.569975    0.000000    1.064198    0.947705    0.000001   -0.370384
10
* Frequency(14)  398.3510
O    -1.514772   -1.969284    0.047638    0.021529   -0.521660   -0.293730
O    -1.514771    1.969283    0.047636    0.021529    0.521658   -0.293731
O     1.514773   -1.969281   -0.047633   -0.021526   -0.521656    0.293747
O     1.514774    1.969282   -0.047632   -0.021524    0.521655    0.293743
Si   -0.000000   -1.363834   -0.000002   -0.000001   -0.251393   -0.000005
Si    0.000000    1.363835   -0.000000    0.000000    0.251394   -0.000001
Mg   -2.317289   -0.000000   -0.406354   -0.396128   -0.000001   -0.163725
Mg    2.317290    0.000000    0.406354    0.396130    0.000000    0.163720
O    -0.613842   -0.000000   -1.047060   -0.947716    0.000000    0.370373
O     0.613837    0.000000    1.047056    0.947705    0.000001   -0.370384
10
* Frequency(14)  398.3510
O    -1.514567   -1.974247    0.044843    0.021529   -0.521660   -0.293730
O    -1.514567    1.974246    0.044841    0.021529    0.521658   -0.293731
O     1.514568   -1.974245   -0.044838   -0.021526   -0.521656    0.293747
O     1.514569    1.974245   -0.044837   -0.021524    0.521655    0.293743
Si   -0.000000   -1.366226   -0.000002   -0.000001   -0.251393   -0.000005
Si    0.000000    1.366227   -0.000000    0.000000    0.251394   -0.000001
Mg   -2.321058   -0.000000   -0.407912   -0.396128   -0.000001   -0.163725
Mg    2.321059    0.000000    0.407912    0.396130    0.000000    0.163720
O    -0.622859   -0.000000   -1.043536   -0.947716    0.000000    0.370373
O     0.622854    0.000000    1.043532    0.947705    0.000001   -0.370384
10
* Frequency(14)  398.3510
O    -1.515176   -1.959492    0.053151    0.021529   -0.521660   -0.293730
O    -1.515175    1.959492    0.053149    0.021529    0.521658   -0.293731
O     1.515177   -1.959490   -0.053146   -0.021526   -0.521656    0.293747
O     1.515178    1.959490   -0.053145   -0.021524    0.521655    0.293743
Si   -0.000000   -1.359116   -0.000002   -0.000001   -0.251393   -0.000005
Si    0.000000    1.359116   -0.000000    0.000000    0.251394   -0.000001
Mg   -2.309854   -0.000000   -0.403281   -0.396128   -0.000001   -0.163725
Mg    2.309855    0.000000    0.403281    0.396130    0.000000    0.163720
O    -0.596054   -0.000000   -1.054012   -0.947716    0.000000    0.370373
O     0.596049    0.000000    1.054008    0.947705    0.000001   -0.370384
10
* Frequency(14)  398.3510
O    -1.516533   -1.926619    0.071661    0.021529   -0.521660   -0.293730
O    -1.516532    1.926618    0.071659    0.021529    0.521658   -0.293731
O     1.516534   -1.926617   -0.071657   -0.021526   -0.521656    0.293747
O     1.516534    1.926617   -0.071656   -0.021524    0.521655    0.293743
Si   -0.000000   -1.343274   -0.000002   -0.000001   -0.251393   -0.000005
Si    0.000000    1.343274   -0.000000    0.000000    0.251394   -0.000001
Mg   -2.284891   -0.000000   -0.392964   -0.396128   -0.000001   -0.163725
Mg    2.284892    0.000000    0.392964    0.396130    0.000000    0.163720
O    -0.536331   -0.000000   -1.077352   -0.947716    0.000000    0.370373
O     0.536327    0.000000    1.077348    0.947705    0.000001   -0.370384
10
* Frequency(14)  398.3510
O    -1.518490   -1.879189    0.098368    0.021529   -0.521660   -0.293730
O    -1.518490    1.879188    0.098365    0.021529    0.521658   -0.293731
O     1.518491   -1.879187   -0.098365   -0.021526   -0.521656    0.293747
O     1.518491    1.879187   -0.098364   -0.021524    0.521655    0.293743
Si   -0.000000   -1.320417   -0.000001   -0.000001   -0.251393   -0.000005
Si    0.000000    1.320417   -0.000000    0.000000    0.251394   -0.000001
Mg   -2.248875   -0.000000   -0.378078   -0.396128   -0.000001   -0.163725
Mg    2.248875    0.000000    0.378078    0.396130    0.000000    0.163720
O    -0.450163   -0.000000   -1.111026   -0.947716    0.000000    0.370373
O     0.450160   -0.000000    1.111024    0.947705    0.000001   -0.370384
10
* Frequency(14)  398.3510
O    -1.520836   -1.822342    0.130377    0.021529   -0.521660   -0.293730
O    -1.520836    1.822341    0.130374    0.021529    0.521658   -0.293731
O     1.520836   -1.822340   -0.130376   -0.021526   -0.521656    0.293747
O     1.520837    1.822341   -0.130374   -0.021524    0.521655    0.293743
Si   -0.000000   -1.293022   -0.000001   -0.000001   -0.251393   -0.000005
Si    0.000000    1.293022   -0.000000    0.000000    0.251394   -0.000001
Mg   -2.205707   -0.000000   -0.360236   -0.396128   -0.000001   -0.163725
Mg    2.205707    0.000000    0.360237    0.396130    0.000000    0.163720
O    -0.346887   -0.000000   -1.151387   -0.947716    0.000000    0.370373
O     0.346886   -0.000000    1.151387    0.947705    0.000001   -0.370384
10
* Frequency(14)  398.3510
O    -1.523317   -1.762238    0.164219    0.021529   -0.521660   -0.293730
O    -1.523316    1.762238    0.164217    0.021529    0.521658   -0.293731
O     1.523317   -1.762237   -0.164220   -0.021526   -0.521656    0.293747
O     1.523317    1.762238   -0.164218   -0.021524    0.521655    0.293743
Si    0.000000   -1.264057   -0.000000   -0.000001   -0.251393   -0.000005
Si    0.000000    1.264057   -0.000000    0.000000    0.251394   -0.000001
Mg   -2.160067    0.000000   -0.341372   -0.396128   -0.000001   -0.163725
Mg    2.160067    0.000000    0.341374    0.396130    0.000000    0.163720
O    -0.237695   -0.000000   -1.194060   -0.947716    0.000000    0.370373
O     0.237695   -0.000000    1.194061    0.947705    0.000001   -0.370384
10
* Frequency(14)  398.3510
O    -1.525663   -1.705391    0.196228    0.021529   -0.521660   -0.293730
O    -1.525662    1.705391    0.196226    0.021529    0.521658   -0.293731
O     1.525662   -1.705390   -0.196231   -0.021526   -0.521656    0.293747
O     1.525662    1.705391   -0.196228   -0.021524    0.521655    0.293743
Si    0.000000   -1.236662    0.000000   -0.000001   -0.251393   -0.000005
Si    0.000000    1.236662   -0.000000    0.000000    0.251394   -0.000001
Mg   -2.116900    0.000000   -0.323531   -0.396128   -0.000001   -0.163725
Mg    2.116899    0.000000    0.323533    0.396130    0.000000    0.163720
O    -0.134419   -0.000000   -1.234421   -0.947716    0.000000    0.370373
O     0.134420   -0.000000    1.234423    0.947705    0.000001   -0.370384
10
* Frequency(14)  398.3510
O    -1.527620   -1.657961    0.222934    0.021529   -0.521660   -0.293730
O    -1.527620    1.657961    0.222933    0.021529    0.521658   -0.293731
O     1.527619   -1.657961   -0.222939   -0.021526   -0.521656    0.293747
O     1.527619    1.657961   -0.222936   -0.021524    0.521655    0.293743
Si    0.000000   -1.213805    0.000001   -0.000001   -0.251393   -0.000005
Si    0.000000    1.213804   -0.000000    0.000000    0.251394   -0.000001
Mg   -2.080883    0.000000   -0.308645   -0.396128   -0.000001   -0.163725
Mg    2.080882    0.000000    0.308647    0.396130    0.000000    0.163720
O    -0.048251   -0.000000   -1.268096   -0.947716    0.000000    0.370373
O     0.048253   -0.000000    1.268099    0.947705    0.000001   -0.370384
10
* Frequency(14)  398.3510
O    -1.528977   -1.625087    0.241445    0.021529   -0.521660   -0.293730
O    -1.528976    1.625088    0.241443    0.021529    0.521658   -0.293731
O     1.528976   -1.625087   -0.241450   -0.021526   -0.521656    0.293747
O     1.528976    1.625088   -0.241447   -0.021524    0.521655    0.293743
Si    0.000000   -1.197963    0.000001   -0.000001   -0.251393   -0.000005
Si    0.000000    1.197962   -0.000000    0.000000    0.251394   -0.000001
Mg   -2.055920    0.000000   -0.298327   -0.396128   -0.000001   -0.163725
Mg    2.055919    0.000000    0.298330    0.396130    0.000000    0.163720
O     0.011471   -0.000000   -1.291436   -0.947716    0.000000    0.370373
O    -0.011469   -0.000001    1.291439    0.947705    0.000001   -0.370384
10
* Frequency(14)  398.3510
O    -1.529586   -1.610332    0.249752    0.021529   -0.521660   -0.293730
O    -1.529585    1.610333    0.249751    0.021529    0.521658   -0.293731
O     1.529585   -1.610333   -0.249758   -0.021526   -0.521656    0.293747
O     1.529584    1.610334   -0.249755   -0.021524    0.521655    0.293743
Si    0.000000   -1.190852    0.000001   -0.000001   -0.251393   -0.000005
Si    0.000000    1.190852    0.000000    0.000000    0.251394   -0.000001
Mg   -2.044716    0.000000   -0.293696   -0.396128   -0.000001   -0.163725
Mg    2.044715    0.000000    0.293699    0.396130    0.000000    0.163720
O     0.038277   -0.000000   -1.301911   -0.947716    0.000000    0.370373
O    -0.038274   -0.000001    1.301915    0.947705    0.000001   -0.370384
10
* Frequency(14)  398.3510
O    -1.529381   -1.615296    0.246958    0.021529   -0.521660   -0.293730
O    -1.529380    1.615296    0.246956    0.021529    0.521658   -0.293731
O     1.529380   -1.615296   -0.246963   -0.021526   -0.521656    0.293747
O     1.529380    1.615297   -0.246960   -0.021524    0.521655    0.293743
Si    0.000000   -1.193244    0.000001   -0.000001   -0.251393   -0.000005
Si    0.000000    1.193244   -0.000000    0.000000    0.251394   -0.000001
Mg   -2.048485    0.000000   -0.295254   -0.396128   -0.000001   -0.163725
Mg    2.048484    0.000000    0.295257    0.396130    0.000000    0.163720
O     0.029259   -0.000000   -1.298388   -0.947716    0.000000    0.370373
O    -0.029257   -0.000001    1.298391    0.947705    0.000001   -0.370384
10
* Frequency(14)  398.3510
O    -1.528385   -1.639439    0.233363    0.021529   -0.521660   -0.293730
O    -1.528384    1.639440    0.233361    0.021529    0.521658   -0.293731
O     1.528384   -1.639439   -0.233368   -0.021526   -0.521656    0.293747
O     1.528383    1.639440   -0.233365   -0.021524    0.521655    0.293743
Si    0.000000   -1.204879    0.000001   -0.000001   -0.251393   -0.000005
Si    0.000000    1.204879   -0.000000    0.000000    0.251394   -0.000001
Mg   -2.066818    0.000000   -0.302832   -0.396128   -0.000001   -0.163725
Mg    2.066818    0.000000    0.302834    0.396130    0.000000    0.163720
O    -0.014603   -0.000000   -1.281246   -0.947716    0.000000    0.370373
O     0.014605   -0.000001    1.281249    0.947705    0.000001   -0.370384
10
* Frequency(14)  398.3510
O    -1.526705   -1.680146    0.210442    0.021529   -0.521660   -0.293730
O    -1.526704    1.680147    0.210440    0.021529    0.521658   -0.293731
O     1.526704   -1.680146   -0.210446   -0.021526   -0.521656    0.293747
O     1.526704    1.680147   -0.210443   -0.021524    0.521655    0.293743
Si    0.000000   -1.224496    0.000000   -0.000001   -0.251393   -0.000005
Si    0.000000    1.224496   -0.000000    0.000000    0.251394   -0.000001
Mg   -2.097730    0.000000   -0.315608   -0.396128   -0.000001   -0.163725
Mg    2.097729    0.000000    0.315610    0.396130    0.000000    0.163720
O    -0.088556   -0.000000   -1.252344   -0.947716    0.000000    0.370373
O     0.088558   -0.000000    1.252347    0.947705    0.000001   -0.370384
10
* Frequency(14)  398.3510
O    -1.524523   -1.733006    0.180679    0.021529   -0.521660   -0.293730
O    -1.524522    1.733006    0.180677    0.021529    0.521658   -0.293731
O     1.524523   -1.733005   -0.180681   -0.021526   -0.521656    0.293747
O     1.524523    1.733006   -0.180679   -0.021524    0.521655    0.293743
Si    0.000000   -1.249970    0.000000   -0.000001   -0.251393   -0.000005
Si    0.000000    1.249970   -0.000000    0.000000    0.251394   -0.000001
Mg   -2.137869    0.000000   -0.332198   -0.396128   -0.000001   -0.163725
Mg    2.137869    0.000000    0.332200    0.396130    0.000000    0.163720
O    -0.184588   -0.000000   -1.214815   -0.947716    0.000000    0.370373
O     0.184588   -0.000000    1.214816    0.947705    0.000001   -0.370384
10
* Frequency(14)  398.3510
O    -1.522076   -1.792290    0.147298    0.021529   -0.521660   -0.293730
O    -1.522076    1.792290    0.147296    0.021529    0.521658   -0.293731
O     1.522077   -1.792289   -0.147298   -0.021526   -0.521656    0.293747
O     1.522077    1.792289   -0.147296   -0.021524    0.521655    0.293743
Si   -0.000000   -1.278539   -0.000001   -0.000001   -0.251393   -0.000005
Si    0.000000    1.278539   -0.000000    0.000000    0.251394   -0.000001
Mg   -2.182887   -0.000000   -0.350804   -0.396128   -0.000001   -0.163725
Mg    2.182887    0.000000    0.350806    0.396130    0.000000    0.163720
O    -0.292291   -0.000000   -1.172724   -0.947716    0.000000    0.370373
O     0.292290   -0.000000    1.172724    0.947705    0.000001   -0.370384
