10
* (null), Energy   -1000.0000000
O    -1.522076   -1.792290    0.147298    0.269194    0.121470   -0.016757
O    -1.522076    1.792290    0.147296    0.269201   -0.121465   -0.016758
O     1.522077   -1.792289   -0.147298   -0.269193    0.121469    0.016753
O     1.522077    1.792289   -0.147296   -0.269201   -0.121464    0.016755
Si   -0.000000   -1.278539   -0.000001    0.000000    0.322017    0.000004
Si    0.000000    1.278539   -0.000000    0.000001   -0.322043    0.000005
Mg   -2.182887   -0.000000   -0.350804    0.024482   -0.000005   -0.034629
Mg    2.182887    0.000000    0.350806   -0.024483   -0.000005    0.034631
O    -0.292291   -0.000000   -1.172724    0.236544    0.000023    1.289777
O     0.292290   -0.000000    1.172724   -0.236545    0.000027   -1.289789
10
* Frequency(23)  746.7755
O    -1.491484   -1.778485    0.145394    0.269194    0.121470   -0.016757
O    -1.491483    1.778486    0.145391    0.269201   -0.121465   -0.016758
O     1.491484   -1.778484   -0.145394   -0.269193    0.121469    0.016753
O     1.491483    1.778485   -0.145392   -0.269201   -0.121464    0.016755
Si    0.000000   -1.241944   -0.000000    0.000000    0.322017    0.000004
Si    0.000000    1.241941    0.000000    0.000001   -0.322043    0.000005
Mg   -2.180105   -0.000001   -0.354740    0.024482   -0.000005   -0.034629
Mg    2.180105   -0.000000    0.354741   -0.024483   -0.000005    0.034631
O    -0.265409    0.000002   -1.026147    0.236544    0.000023    1.289777
O     0.265408    0.000003    1.026146   -0.236545    0.000027   -1.289789
10
* Frequency(23)  746.7755
O    -1.464207   -1.766177    0.143696    0.269194    0.121470   -0.016757
O    -1.464204    1.766178    0.143693    0.269201   -0.121465   -0.016758
O     1.464207   -1.766176   -0.143697   -0.269193    0.121469    0.016753
O     1.464205    1.766178   -0.143694   -0.269201   -0.121464    0.016755
Si    0.000000   -1.209314    0.000000    0.000000    0.322017    0.000004
Si    0.000000    1.209308    0.000001    0.000001   -0.322043    0.000005
Mg   -2.177624   -0.000001   -0.358249    0.024482   -0.000005   -0.034629
Mg    2.177624   -0.000001    0.358250   -0.024483   -0.000005    0.034631
O    -0.241440    0.000005   -0.895455    0.236544    0.000023    1.289777
O     0.241439    0.000006    0.895452   -0.236545    0.000027   -1.289789
10
* Frequency(23)  746.7755
O    -1.443200   -1.756698    0.142388    0.269194    0.121470   -0.016757
O    -1.443198    1.756699    0.142386    0.269201   -0.121465   -0.016758
O     1.443201   -1.756697   -0.142389   -0.269193    0.121469    0.016753
O     1.443198    1.756699   -0.142387   -0.269201   -0.121464    0.016755
Si    0.000000   -1.184186    0.000001    0.000000    0.322017    0.000004
Si    0.000000    1.184178    0.000001    0.000001   -0.322043    0.000005
Mg   -2.175714   -0.000002   -0.360951    0.024482   -0.000005   -0.034629
Mg    2.175713   -0.000001    0.360953   -0.024483   -0.000005    0.034631
O    -0.222982    0.000007   -0.794808    0.236544    0.000023    1.289777
O     0.222981    0.000008    0.794805   -0.236545    0.000027   -1.289789
10
* Frequency(23)  746.7755
O    -1.430742   -1.751076    0.141612    0.269194    0.121470   -0.016757
O    -1.430739    1.751078    0.141610    0.269201   -0.121465   -0.016758
O     1.430742   -1.751075   -0.141614   -0.269193    0.121469    0.016753
O     1.430739    1.751078   -0.141611   -0.269201   -0.121464    0.016755
Si    0.000000   -1.169282    0.000001    0.000000    0.322017    0.000004
Si    0.000000    1.169273    0.000002    0.000001   -0.322043    0.000005
Mg   -2.174580   -0.000002   -0.362554    0.024482   -0.000005   -0.034629
Mg    2.174580   -0.000002    0.362556   -0.024483   -0.000005    0.034631
O    -0.212034    0.000008   -0.735115    0.236544    0.000023    1.289777
O     0.212033    0.000009    0.735111   -0.236545    0.000027   -1.289789
10
* Frequency(23)  746.7755
O    -1.428180   -1.749920    0.141453    0.269194    0.121470   -0.016757
O    -1.428177    1.749922    0.141450    0.269201   -0.121465   -0.016758
O     1.428181   -1.749920   -0.141454   -0.269193    0.121469    0.016753
O     1.428178    1.749922   -0.141452   -0.269201   -0.121464    0.016755
Si    0.000000   -1.166218    0.000001    0.000000    0.322017    0.000004
Si    0.000000    1.166209    0.000002    0.000001   -0.322043    0.000005
Mg   -2.174348   -0.000002   -0.362883    0.024482   -0.000005   -0.034629
Mg    2.174347   -0.000002    0.362885   -0.024483   -0.000005    0.034631
O    -0.209784    0.000008   -0.722844    0.236544    0.000023    1.289777
O     0.209782    0.000009    0.722839   -0.236545    0.000027   -1.289789
10
* Frequency(23)  746.7755
O    -1.435794   -1.753356    0.141927    0.269194    0.121470   -0.016757
O    -1.435791    1.753358    0.141924    0.269201   -0.121465   -0.016758
O     1.435794   -1.753355   -0.141928   -0.269193    0.121469    0.016753
O     1.435792    1.753357   -0.141926   -0.269201   -0.121464    0.016755
Si    0.000000   -1.175326    0.000001    0.000000    0.322017    0.000004
Si    0.000000    1.175318    0.000001    0.000001   -0.322043    0.000005
Mg   -2.175040   -0.000002   -0.361904    0.024482   -0.000005   -0.034629
Mg    2.175040   -0.000001    0.361906   -0.024483   -0.000005    0.034631
O    -0.216474    0.000007   -0.759324    0.236544    0.000023    1.289777
O     0.216473    0.000009    0.759320   -0.236545    0.000027   -1.289789
10
* Frequency(23)  746.7755
O    -1.452758   -1.761011    0.142983    0.269194    0.121470   -0.016757
O    -1.452756    1.761012    0.142981    0.269201   -0.121465   -0.016758
O     1.452758   -1.761010   -0.142984   -0.269193    0.121469    0.016753
O     1.452756    1.761012   -0.142982   -0.269201   -0.121464    0.016755
Si    0.000000   -1.195619    0.000000    0.000000    0.322017    0.000004
Si    0.000000    1.195612    0.000001    0.000001   -0.322043    0.000005
Mg   -2.176583   -0.000001   -0.359721    0.024482   -0.000005   -0.034629
Mg    2.176583   -0.000001    0.359723   -0.024483   -0.000005    0.034631
O    -0.231380    0.000006   -0.840602    0.236544    0.000023    1.289777
O     0.231379    0.000007    0.840599   -0.236545    0.000027   -1.289789
10
* Frequency(23)  746.7755
O    -1.477234   -1.772055    0.144506    0.269194    0.121470   -0.016757
O    -1.477232    1.772056    0.144504    0.269201   -0.121465   -0.016758
O     1.477234   -1.772054   -0.144507   -0.269193    0.121469    0.016753
O     1.477233    1.772056   -0.144505   -0.269201   -0.121464    0.016755
Si    0.000000   -1.224897    0.000000    0.000000    0.322017    0.000004
Si    0.000000    1.224893    0.000001    0.000001   -0.322043    0.000005
Mg   -2.178809   -0.000001   -0.356573    0.024482   -0.000005   -0.034629
Mg    2.178809   -0.000001    0.356575   -0.024483   -0.000005    0.034631
O    -0.252887    0.000004   -0.957871    0.236544    0.000023    1.289777
O     0.252886    0.000004    0.957869   -0.236545    0.000027   -1.289789
10
* Frequency(23)  746.7755
O    -1.506569   -1.785292    0.146333    0.269194    0.121470   -0.016757
O    -1.506568    1.785292    0.146330    0.269201   -0.121465   -0.016758
O     1.506569   -1.785291   -0.146333   -0.269193    0.121469    0.016753
O     1.506568    1.785292   -0.146331   -0.269201   -0.121464    0.016755
Si   -0.000000   -1.259989   -0.000000    0.000000    0.322017    0.000004
Si    0.000000    1.259987    0.000000    0.000001   -0.322043    0.000005
Mg   -2.181477   -0.000000   -0.352799    0.024482   -0.000005   -0.034629
Mg    2.181477   -0.000000    0.352801   -0.024483   -0.000005    0.034631
O    -0.278664    0.000001   -1.098422    0.236544    0.000023    1.289777
O     0.278663    0.000001    1.098421   -0.236545    0.000027   -1.289789
10
* Frequency(23)  746.7755
O    -1.537584   -1.799287    0.148263    0.269194    0.121470   -0.016757
O    -1.537584    1.799287    0.148261    0.269201   -0.121465   -0.016758
O     1.537584   -1.799286   -0.148263   -0.269193    0.121469    0.016753
O     1.537585    1.799287   -0.148261   -0.269201   -0.121464    0.016755
Si   -0.000000   -1.297090   -0.000001    0.000000    0.322017    0.000004
Si    0.000000    1.297091   -0.000000    0.000001   -0.322043    0.000005
Mg   -2.184298    0.000000   -0.348809    0.024482   -0.000005   -0.034629
Mg    2.184298    0.000000    0.348811   -0.024483   -0.000005    0.034631
O    -0.305918   -0.000002   -1.247025    0.236544    0.000023    1.289777
O     0.305917   -0.000002    1.247026   -0.236545    0.000027   -1.289789
10
* Frequency(23)  746.7755
O    -1.566919   -1.812524    0.150089    0.269194    0.121470   -0.016757
O    -1.566920    1.812523    0.150087    0.269201   -0.121465   -0.016758
O     1.566919   -1.812523   -0.150089   -0.269193    0.121469    0.016753
O     1.566921    1.812523   -0.150087   -0.269201   -0.121464    0.016755
Si   -0.000000   -1.332181   -0.000001    0.000000    0.322017    0.000004
Si    0.000000    1.332186   -0.000001    0.000001   -0.322043    0.000005
Mg   -2.186965    0.000001   -0.345036    0.024482   -0.000005   -0.034629
Mg    2.186966    0.000001    0.345037   -0.024483   -0.000005    0.034631
O    -0.331695   -0.000004   -1.387577    0.236544    0.000023    1.289777
O     0.331694   -0.000005    1.387579   -0.236545    0.000027   -1.289789
10
* Frequency(23)  746.7755
O    -1.591395   -1.823569    0.151613    0.269194    0.121470   -0.016757
O    -1.591396    1.823567    0.151611    0.269201   -0.121465   -0.016758
O     1.591395   -1.823567   -0.151612   -0.269193    0.121469    0.016753
O     1.591397    1.823567   -0.151611   -0.269201   -0.121464    0.016755
Si   -0.000000   -1.361460   -0.000001    0.000000    0.322017    0.000004
Si    0.000000    1.361466   -0.000001    0.000001   -0.322043    0.000005
Mg   -2.189191    0.000001   -0.341887    0.024482   -0.000005   -0.034629
Mg    2.189192    0.000001    0.341888   -0.024483   -0.000005    0.034631
O    -0.353202   -0.000006   -1.504846    0.236544    0.000023    1.289777
O     0.353201   -0.000007    1.504849   -0.236545    0.000027   -1.289789
10
* Frequency(23)  746.7755
O    -1.608358   -1.831224    0.152669    0.269194    0.121470   -0.016757
O    -1.608360    1.831222    0.152667    0.269201   -0.121465   -0.016758
O     1.608359   -1.831222   -0.152668   -0.269193    0.121469    0.016753
O     1.608361    1.831221   -0.152667   -0.269201   -0.121464    0.016755
Si   -0.000000   -1.381753   -0.000002    0.000000    0.322017    0.000004
Si    0.000000    1.381761   -0.000002    0.000001   -0.322043    0.000005
Mg   -2.190734    0.000002   -0.339705    0.024482   -0.000005   -0.034629
Mg    2.190735    0.000002    0.339706   -0.024483   -0.000005    0.034631
O    -0.368108   -0.000008   -1.586124    0.236544    0.000023    1.289777
O     0.368108   -0.000009    1.586128   -0.236545    0.000027   -1.289789
10
* Frequency(23)  746.7755
O    -1.615972   -1.834659    0.153143    0.269194    0.121470   -0.016757
O    -1.615974    1.834657    0.153141    0.269201   -0.121465   -0.016758
O     1.615972   -1.834658   -0.153142   -0.269193    0.121469    0.016753
O     1.615975    1.834657   -0.153140   -0.269201   -0.121464    0.016755
Si   -0.000000   -1.390860   -0.000002    0.000000    0.322017    0.000004
Si    0.000000    1.390869   -0.000002    0.000001   -0.322043    0.000005
Mg   -2.191427    0.000002   -0.338725    0.024482   -0.000005   -0.034629
Mg    2.191427    0.000002    0.338726   -0.024483   -0.000005    0.034631
O    -0.374799   -0.000008   -1.622604    0.236544    0.000023    1.289777
O     0.374798   -0.000010    1.622608   -0.236545    0.000027   -1.289789
10
* Frequency(23)  746.7755
O    -1.613411   -1.833503    0.152983    0.269194    0.121470   -0.016757
O    -1.613413    1.833501    0.152981    0.269201   -0.121465   -0.016758
O     1.613411   -1.833502   -0.152982   -0.269193    0.121469    0.016753
O     1.613414    1.833501   -0.152981   -0.269201   -0.121464    0.016755
Si   -0.000000   -1.387797   -0.000002    0.000000    0.322017    0.000004
Si    0.000000    1.387805   -0.000002    0.000001   -0.322043    0.000005
Mg   -2.191194    0.000002   -0.339055    0.024482   -0.000005   -0.034629
Mg    2.191194    0.000002    0.339056   -0.024483   -0.000005    0.034631
O    -0.372548   -0.000008   -1.610332    0.236544    0.000023    1.289777
O     0.372547   -0.000010    1.610336   -0.236545    0.000027   -1.289789
10
* Frequency(23)  746.7755
O    -1.600952   -1.827882    0.152208    0.269194    0.121470   -0.016757
O    -1.600954    1.827880    0.152206    0.269201   -0.121465   -0.016758
O     1.600952   -1.827880   -0.152207   -0.269193    0.121469    0.016753
O     1.600955    1.827879   -0.152206   -0.269201   -0.121464    0.016755
Si   -0.000000   -1.372893   -0.000002    0.000000    0.322017    0.000004
Si    0.000000    1.372900   -0.000002    0.000001   -0.322043    0.000005
Mg   -2.190061    0.000002   -0.340658    0.024482   -0.000005   -0.034629
Mg    2.190061    0.000002    0.340658   -0.024483   -0.000005    0.034631
O    -0.361601   -0.000007   -1.550639    0.236544    0.000023    1.289777
O     0.361600   -0.000008    1.550642   -0.236545    0.000027   -1.289789
10
* Frequency(23)  746.7755
O    -1.579946   -1.818403    0.150900    0.269194    0.121470   -0.016757
O    -1.579947    1.818402    0.150898    0.269201   -0.121465   -0.016758
O     1.579946   -1.818401   -0.150900   -0.269193    0.121469    0.016753
O     1.579948    1.818401   -0.150898   -0.269201   -0.121464    0.016755
Si   -0.000000   -1.347765   -0.000001    0.000000    0.322017    0.000004
Si    0.000000    1.347770   -0.000001    0.000001   -0.322043    0.000005
Mg   -2.188150    0.000001   -0.343360    0.024482   -0.000005   -0.034629
Mg    2.188150    0.000001    0.343361   -0.024483   -0.000005    0.034631
O    -0.343142   -0.000005   -1.449993    0.236544    0.000023    1.289777
O     0.343141   -0.000006    1.449995   -0.236545    0.000027   -1.289789
10
* Frequency(23)  746.7755
O    -1.552669   -1.806094    0.149202    0.269194    0.121470   -0.016757
O    -1.552669    1.806094    0.149200    0.269201   -0.121465   -0.016758
O     1.552669   -1.806093   -0.149202   -0.269193    0.121469    0.016753
O     1.552670    1.806093   -0.149200   -0.269201   -0.121464    0.016755
Si   -0.000000   -1.315135   -0.000001    0.000000    0.322017    0.000004
Si    0.000000    1.315138   -0.000001    0.000001   -0.322043    0.000005
Mg   -2.185669    0.000001   -0.346869    0.024482   -0.000005   -0.034629
Mg    2.185669    0.000001    0.346870   -0.024483   -0.000005    0.034631
O    -0.319173   -0.000003   -1.319300    0.236544    0.000023    1.289777
O     0.319172   -0.000003    1.319301   -0.236545    0.000027   -1.289789
10
* Frequency(23)  746.7755
O    -1.522076   -1.792290    0.147298    0.269194    0.121470   -0.016757
O    -1.522076    1.792290    0.147296    0.269201   -0.121465   -0.016758
O     1.522077   -1.792289   -0.147298   -0.269193    0.121469    0.016753
O     1.522077    1.792289   -0.147296   -0.269201   -0.121464    0.016755
Si   -0.000000   -1.278539   -0.000001    0.000000    0.322017    0.000004
Si    0.000000    1.278539   -0.000000    0.000001   -0.322043    0.000005
Mg   -2.182887   -0.000000   -0.350804    0.024482   -0.000005   -0.034629
Mg    2.182887    0.000000    0.350806   -0.024483   -0.000005    0.034631
O    -0.292291   -0.000000   -1.172724    0.236544    0.000023    1.289777
O     0.292290   -0.000000    1.172724   -0.236545    0.000027   -1.289789
