10
* (null), Energy   -1000.0000000
O    -1.522076   -1.792290    0.147298    0.168419    0.596434   -0.162867
O    -1.522076    1.792290    0.147296    0.168419   -0.596429   -0.162859
O     1.522077   -1.792289   -0.147298    0.168420   -0.596434   -0.162867
O     1.522077    1.792289   -0.147296    0.168420    0.596430   -0.162859
Si   -0.000000   -1.278539   -0.000001    0.286682   -0.000000   -0.003181
Si    0.000000    1.278539   -0.000000    0.286679    0.000000   -0.003178
Mg   -2.182887   -0.000000   -0.350804    0.088755    0.000000   -0.026012
Mg    2.182887    0.000000    0.350806    0.088755    0.000000   -0.026012
O    -0.292291   -0.000000   -1.172724   -0.974935   -0.000013    0.370825
O     0.292290   -0.000000    1.172724   -0.974935    0.000013    0.370824
10
* Frequency(21)  610.3665
O    -1.502936   -1.724508    0.128789    0.168419    0.596434   -0.162867
O    -1.502936    1.724509    0.128788    0.168419   -0.596429   -0.162859
O     1.541217   -1.860070   -0.165807    0.168420   -0.596434   -0.162867
O     1.541217    1.860070   -0.165804    0.168420    0.596430   -0.162859
Si    0.032580   -1.278539   -0.000362    0.286682   -0.000000   -0.003181
Si    0.032580    1.278539   -0.000361    0.286679    0.000000   -0.003178
Mg   -2.172801   -0.000000   -0.353760    0.088755    0.000000   -0.026012
Mg    2.192974    0.000000    0.347850    0.088755    0.000000   -0.026012
O    -0.403088   -0.000002   -1.130581   -0.974935   -0.000013    0.370825
O     0.181494    0.000001    1.214866   -0.974935    0.000013    0.370824
10
* Frequency(21)  610.3665
O    -1.485871   -1.664072    0.112286    0.168419    0.596434   -0.162867
O    -1.485870    1.664073    0.112285    0.168419   -0.596429   -0.162859
O     1.558282   -1.920507   -0.182310    0.168420   -0.596434   -0.162867
O     1.558283    1.920506   -0.182307    0.168420    0.596430   -0.162859
Si    0.061629   -1.278539   -0.000684    0.286682   -0.000000   -0.003181
Si    0.061629    1.278539   -0.000683    0.286679    0.000000   -0.003178
Mg   -2.163807   -0.000000   -0.356396    0.088755    0.000000   -0.026012
Mg    2.201967    0.000000    0.345214    0.088755    0.000000   -0.026012
O    -0.501877   -0.000003   -1.093006   -0.974935   -0.000013    0.370825
O     0.082704    0.000003    1.252441   -0.974935    0.000013    0.370824
10
* Frequency(21)  610.3665
O    -1.472728   -1.617530    0.099577    0.168419    0.596434   -0.162867
O    -1.472728    1.617531    0.099577    0.168419   -0.596429   -0.162859
O     1.571425   -1.967049   -0.195020    0.168420   -0.596434   -0.162867
O     1.571425    1.967048   -0.195015    0.168420    0.596430   -0.162859
Si    0.084000   -1.278539   -0.000933    0.286682   -0.000000   -0.003181
Si    0.084000    1.278539   -0.000931    0.286679    0.000000   -0.003178
Mg   -2.156881   -0.000000   -0.358426    0.088755    0.000000   -0.026012
Mg    2.208893    0.000000    0.343184    0.088755    0.000000   -0.026012
O    -0.577955   -0.000004   -1.064069   -0.974935   -0.000013    0.370825
O     0.006626    0.000004    1.281378   -0.974935    0.000013    0.370824
10
* Frequency(21)  610.3665
O    -1.464933   -1.589926    0.092039    0.168419    0.596434   -0.162867
O    -1.464933    1.589927    0.092039    0.168419   -0.596429   -0.162859
O     1.579220   -1.994653   -0.202557    0.168420   -0.596434   -0.162867
O     1.579220    1.994652   -0.202553    0.168420    0.596430   -0.162859
Si    0.097268   -1.278539   -0.001080    0.286682   -0.000000   -0.003181
Si    0.097268    1.278539   -0.001079    0.286679    0.000000   -0.003178
Mg   -2.152773   -0.000000   -0.359630    0.088755    0.000000   -0.026012
Mg    2.213001    0.000000    0.341980    0.088755    0.000000   -0.026012
O    -0.623077   -0.000005   -1.046906   -0.974935   -0.000013    0.370825
O    -0.038496    0.000004    1.298540   -0.974935    0.000013    0.370824
10
* Frequency(21)  610.3665
O    -1.463331   -1.584251    0.090489    0.168419    0.596434   -0.162867
O    -1.463331    1.584252    0.090490    0.168419   -0.596429   -0.162859
O     1.580822   -2.000328   -0.204107    0.168420   -0.596434   -0.162867
O     1.580822    2.000327   -0.204102    0.168420    0.596430   -0.162859
Si    0.099996   -1.278539   -0.001110    0.286682   -0.000000   -0.003181
Si    0.099995    1.278539   -0.001109    0.286679    0.000000   -0.003178
Mg   -2.151929   -0.000000   -0.359877    0.088755    0.000000   -0.026012
Mg    2.213845    0.000000    0.341733    0.088755    0.000000   -0.026012
O    -0.632353   -0.000005   -1.043378   -0.974935   -0.000013    0.370825
O    -0.047772    0.000004    1.302069   -0.974935    0.000013    0.370824
10
* Frequency(21)  610.3665
O    -1.468095   -1.601120    0.095096    0.168419    0.596434   -0.162867
O    -1.468094    1.601122    0.095096    0.168419   -0.596429   -0.162859
O     1.576059   -1.983458   -0.199500    0.168420   -0.596434   -0.162867
O     1.576059    1.983457   -0.199496    0.168420    0.596430   -0.162859
Si    0.091887   -1.278539   -0.001020    0.286682   -0.000000   -0.003181
Si    0.091887    1.278539   -0.001019    0.286679    0.000000   -0.003178
Mg   -2.154439   -0.000000   -0.359142    0.088755    0.000000   -0.026012
Mg    2.211335    0.000000    0.342468    0.088755    0.000000   -0.026012
O    -0.604778   -0.000005   -1.053867   -0.974935   -0.000013    0.370825
O    -0.020197    0.000004    1.291580   -0.974935    0.000013    0.370824
10
* Frequency(21)  610.3665
O    -1.478708   -1.638706    0.105359    0.168419    0.596434   -0.162867
O    -1.478707    1.638707    0.105359    0.168419   -0.596429   -0.162859
O     1.565445   -1.945872   -0.189237    0.168420   -0.596434   -0.162867
O     1.565445    1.945872   -0.189233    0.168420    0.596430   -0.162859
Si    0.073822   -1.278539   -0.000820    0.286682   -0.000000   -0.003181
Si    0.073821    1.278539   -0.000819    0.286679    0.000000   -0.003178
Mg   -2.160032   -0.000000   -0.357502    0.088755    0.000000   -0.026012
Mg    2.205742    0.000000    0.344108    0.088755    0.000000   -0.026012
O    -0.543340   -0.000004   -1.077235   -0.974935   -0.000013    0.370825
O     0.041241    0.000003    1.268212   -0.974935    0.000013    0.370824
10
* Frequency(21)  610.3665
O    -1.494021   -1.692935    0.120167    0.168419    0.596434   -0.162867
O    -1.494020    1.692936    0.120166    0.168419   -0.596429   -0.162859
O     1.550132   -1.891644   -0.174429    0.168420   -0.596434   -0.162867
O     1.550132    1.891643   -0.174426    0.168420    0.596430   -0.162859
Si    0.047756   -1.278539   -0.000530    0.286682   -0.000000   -0.003181
Si    0.047756    1.278539   -0.000530    0.286679    0.000000   -0.003178
Mg   -2.168102   -0.000000   -0.355137    0.088755    0.000000   -0.026012
Mg    2.197672    0.000000    0.346473    0.088755    0.000000   -0.026012
O    -0.454697   -0.000003   -1.110951   -0.974935   -0.000013    0.370825
O     0.129884    0.000002    1.234496   -0.974935    0.000013    0.370824
10
* Frequency(21)  610.3665
O    -1.512374   -1.757930    0.137915    0.168419    0.596434   -0.162867
O    -1.512374    1.757931    0.137914    0.168419   -0.596429   -0.162859
O     1.531779   -1.826648   -0.156681    0.168420   -0.596434   -0.162867
O     1.531779    1.826648   -0.156678    0.168420    0.596430   -0.162859
Si    0.016515   -1.278539   -0.000184    0.286682   -0.000000   -0.003181
Si    0.016515    1.278539   -0.000183    0.286679    0.000000   -0.003178
Mg   -2.177774   -0.000000   -0.352303    0.088755    0.000000   -0.026012
Mg    2.188000    0.000000    0.349307    0.088755    0.000000   -0.026012
O    -0.348455   -0.000001   -1.151361   -0.974935   -0.000013    0.370825
O     0.236126    0.000001    1.194086   -0.974935    0.000013    0.370824
10
* Frequency(21)  610.3665
O    -1.531779   -1.826649    0.156680    0.168419    0.596434   -0.162867
O    -1.531778    1.826649    0.156678    0.168419   -0.596429   -0.162859
O     1.512374   -1.757929   -0.137916    0.168420   -0.596434   -0.162867
O     1.512374    1.757930   -0.137914    0.168420    0.596430   -0.162859
Si   -0.016515   -1.278539    0.000183    0.286682   -0.000000   -0.003181
Si   -0.016515    1.278539    0.000183    0.286679    0.000000   -0.003178
Mg   -2.188000   -0.000000   -0.349306    0.088755    0.000000   -0.026012
Mg    2.177774    0.000000    0.352304    0.088755    0.000000   -0.026012
O    -0.236127    0.000000   -1.194086   -0.974935   -0.000013    0.370825
O     0.348454   -0.000001    1.151361   -0.974935    0.000013    0.370824
10
* Frequency(21)  610.3665
O    -1.550132   -1.891645    0.174429    0.168419    0.596434   -0.162867
O    -1.550131    1.891644    0.174425    0.168419   -0.596429   -0.162859
O     1.494021   -1.692934   -0.120167    0.168420   -0.596434   -0.162867
O     1.494021    1.692935   -0.120167    0.168420    0.596430   -0.162859
Si   -0.047756   -1.278539    0.000529    0.286682   -0.000000   -0.003181
Si   -0.047755    1.278539    0.000529    0.286679    0.000000   -0.003178
Mg   -2.197672   -0.000000   -0.346471    0.088755    0.000000   -0.026012
Mg    2.168102    0.000000    0.355139    0.088755    0.000000   -0.026012
O    -0.129885    0.000002   -1.234496   -0.974935   -0.000013    0.370825
O     0.454696   -0.000002    1.110951   -0.974935    0.000013    0.370824
10
* Frequency(21)  610.3665
O    -1.565445   -1.945873    0.189237    0.168419    0.596434   -0.162867
O    -1.565444    1.945872    0.189232    0.168419   -0.596429   -0.162859
O     1.478708   -1.638705   -0.105359    0.168420   -0.596434   -0.162867
O     1.478708    1.638707   -0.105359    0.168420    0.596430   -0.162859
Si   -0.073822   -1.278539    0.000819    0.286682   -0.000000   -0.003181
Si   -0.073821    1.278539    0.000818    0.286679    0.000000   -0.003178
Mg   -2.205742   -0.000000   -0.344106    0.088755    0.000000   -0.026012
Mg    2.160032    0.000000    0.357504    0.088755    0.000000   -0.026012
O    -0.041242    0.000003   -1.268213   -0.974935   -0.000013    0.370825
O     0.543339   -0.000004    1.077235   -0.974935    0.000013    0.370824
10
* Frequency(21)  610.3665
O    -1.576058   -1.983459    0.199500    0.168419    0.596434   -0.162867
O    -1.576058    1.983458    0.199495    0.168419   -0.596429   -0.162859
O     1.468094   -1.601119   -0.095096    0.168420   -0.596434   -0.162867
O     1.468095    1.601121   -0.095096    0.168420    0.596430   -0.162859
Si   -0.091887   -1.278539    0.001019    0.286682   -0.000000   -0.003181
Si   -0.091886    1.278539    0.001019    0.286679    0.000000   -0.003178
Mg   -2.211335   -0.000000   -0.342467    0.088755    0.000000   -0.026012
Mg    2.154439    0.000000    0.359143    0.088755    0.000000   -0.026012
O     0.020196    0.000004   -1.291581   -0.974935   -0.000013    0.370825
O     0.604777   -0.000005    1.053867   -0.974935    0.000013    0.370824
10
* Frequency(21)  610.3665
O    -1.580822   -2.000329    0.204107    0.168419    0.596434   -0.162867
O    -1.580821    2.000327    0.204102    0.168419   -0.596429   -0.162859
O     1.463331   -1.584250   -0.090489    0.168420   -0.596434   -0.162867
O     1.463331    1.584252   -0.090490    0.168420    0.596430   -0.162859
Si   -0.099996   -1.278539    0.001109    0.286682   -0.000000   -0.003181
Si   -0.099995    1.278539    0.001108    0.286679    0.000000   -0.003178
Mg   -2.213845   -0.000000   -0.341731    0.088755    0.000000   -0.026012
Mg    2.151929    0.000000    0.359879    0.088755    0.000000   -0.026012
O     0.047771    0.000004   -1.302069   -0.974935   -0.000013    0.370825
O     0.632352   -0.000005    1.043379   -0.974935    0.000013    0.370824
10
* Frequency(21)  610.3665
O    -1.579219   -1.994654    0.202557    0.168419    0.596434   -0.162867
O    -1.579219    1.994652    0.202552    0.168419   -0.596429   -0.162859
O     1.464933   -1.589924   -0.092039    0.168420   -0.596434   -0.162867
O     1.464933    1.589927   -0.092040    0.168420    0.596430   -0.162859
Si   -0.097268   -1.278539    0.001079    0.286682   -0.000000   -0.003181
Si   -0.097267    1.278539    0.001078    0.286679    0.000000   -0.003178
Mg   -2.213001   -0.000000   -0.341979    0.088755    0.000000   -0.026012
Mg    2.152773    0.000000    0.359631    0.088755    0.000000   -0.026012
O     0.038495    0.000004   -1.298541   -0.974935   -0.000013    0.370825
O     0.623076   -0.000005    1.046907   -0.974935    0.000013    0.370824
10
* Frequency(21)  610.3665
O    -1.571425   -1.967050    0.195019    0.168419    0.596434   -0.162867
O    -1.571424    1.967048    0.195015    0.168419   -0.596429   -0.162859
O     1.472728   -1.617529   -0.099577    0.168420   -0.596434   -0.162867
O     1.472728    1.617530   -0.099577    0.168420    0.596430   -0.162859
Si   -0.084000   -1.278539    0.000932    0.286682   -0.000000   -0.003181
Si   -0.083999    1.278539    0.000931    0.286679    0.000000   -0.003178
Mg   -2.208893   -0.000000   -0.343182    0.088755    0.000000   -0.026012
Mg    2.156881    0.000000    0.358427    0.088755    0.000000   -0.026012
O    -0.006627    0.000004   -1.281379   -0.974935   -0.000013    0.370825
O     0.577954   -0.000004    1.064069   -0.974935    0.000013    0.370824
10
* Frequency(21)  610.3665
O    -1.558282   -1.920508    0.182310    0.168419    0.596434   -0.162867
O    -1.558282    1.920507    0.182306    0.168419   -0.596429   -0.162859
O     1.485871   -1.664071   -0.112286    0.168420   -0.596434   -0.162867
O     1.485871    1.664072   -0.112285    0.168420    0.596430   -0.162859
Si   -0.061629   -1.278539    0.000683    0.286682   -0.000000   -0.003181
Si   -0.061628    1.278539    0.000683    0.286679    0.000000   -0.003178
Mg   -2.201967   -0.000000   -0.345212    0.088755    0.000000   -0.026012
Mg    2.163807    0.000000    0.356397    0.088755    0.000000   -0.026012
O    -0.082705    0.000003   -1.252442   -0.974935   -0.000013    0.370825
O     0.501876   -0.000003    1.093006   -0.974935    0.000013    0.370824
10
* Frequency(21)  610.3665
O    -1.541216   -1.860071    0.165807    0.168419    0.596434   -0.162867
O    -1.541216    1.860071    0.165804    0.168419   -0.596429   -0.162859
O     1.502936   -1.724507   -0.128789    0.168420   -0.596434   -0.162867
O     1.502937    1.724508   -0.128788    0.168420    0.596430   -0.162859
Si   -0.032580   -1.278539    0.000361    0.286682   -0.000000   -0.003181
Si   -0.032579    1.278539    0.000361    0.286679    0.000000   -0.003178
Mg   -2.192974   -0.000000   -0.347848    0.088755    0.000000   -0.026012
Mg    2.172801    0.000000    0.353762    0.088755    0.000000   -0.026012
O    -0.181495    0.000001   -1.214866   -0.974935   -0.000013    0.370825
O     0.403086   -0.000002    1.130581   -0.974935    0.000013    0.370824
10
* Frequency(21)  610.3665
O    -1.522076   -1.792290    0.147298    0.168419    0.596434   -0.162867
O    -1.522076    1.792290    0.147296    0.168419   -0.596429   -0.162859
O     1.522077   -1.792289   -0.147298    0.168420   -0.596434   -0.162867
O     1.522077    1.792289   -0.147296    0.168420    0.596430   -0.162859
Si   -0.000000   -1.278539   -0.000001    0.286682   -0.000000   -0.003181
Si    0.000000    1.278539   -0.000000    0.286679    0.000000   -0.003178
Mg   -2.182887   -0.000000   -0.350804    0.088755    0.000000   -0.026012
Mg    2.182887    0.000000    0.350806    0.088755    0.000000   -0.026012
O    -0.292291   -0.000000   -1.172724   -0.974935   -0.000013    0.370825
O     0.292290   -0.000000    1.172724   -0.974935    0.000013    0.370824
