10
* (null), Energy   -1000.0000000
O    -1.522076   -1.792290    0.147298   -0.014535    0.197324    0.969397
O    -1.522076    1.792290    0.147296    0.014536    0.197325   -0.969398
O     1.522077   -1.792289   -0.147298    0.014536    0.197325   -0.969398
O     1.522077    1.792289   -0.147296   -0.014537    0.197324    0.969397
Si   -0.000000   -1.278539   -0.000001    0.000000   -0.076827    0.000001
Si    0.000000    1.278539   -0.000000   -0.000000   -0.076827    0.000001
Mg   -2.182887   -0.000000   -0.350804   -0.000000   -0.049897   -0.000001
Mg    2.182887    0.000000    0.350806    0.000001   -0.049898    0.000000
O    -0.292291   -0.000000   -1.172724   -0.000002   -0.183978    0.000001
O     0.292290   -0.000000    1.172724    0.000001   -0.183978    0.000000
10
* Frequency(8)  258.8983
O    -1.523728   -1.769865    0.257465   -0.014535    0.197324    0.969397
O    -1.520424    1.814715    0.037129    0.014536    0.197325   -0.969398
O     1.523728   -1.769864   -0.257465    0.014536    0.197325   -0.969398
O     1.520425    1.814714   -0.037129   -0.014537    0.197324    0.969397
Si   -0.000000   -1.287270   -0.000000    0.000000   -0.076827    0.000001
Si    0.000000    1.269808   -0.000000   -0.000000   -0.076827    0.000001
Mg   -2.182887   -0.005671   -0.350804   -0.000000   -0.049897   -0.000001
Mg    2.182887   -0.005671    0.350806    0.000001   -0.049898    0.000000
O    -0.292291   -0.020908   -1.172724   -0.000002   -0.183978    0.000001
O     0.292290   -0.020908    1.172724    0.000001   -0.183978    0.000000
10
* Frequency(8)  258.8983
O    -1.525201   -1.749870    0.355694   -0.014535    0.197324    0.969397
O    -1.518951    1.834709   -0.061100    0.014536    0.197325   -0.969398
O     1.525201   -1.749869   -0.355694    0.014536    0.197325   -0.969398
O     1.518952    1.834709    0.061099   -0.014537    0.197324    0.969397
Si   -0.000000   -1.295055   -0.000000    0.000000   -0.076827    0.000001
Si    0.000000    1.262023   -0.000000   -0.000000   -0.076827    0.000001
Mg   -2.182887   -0.010727   -0.350805   -0.000000   -0.049897   -0.000001
Mg    2.182887   -0.010727    0.350806    0.000001   -0.049898    0.000000
O    -0.292292   -0.039551   -1.172724   -0.000002   -0.183978    0.000001
O     0.292290   -0.039551    1.172724    0.000001   -0.183978    0.000000
10
* Frequency(8)  258.8983
O    -1.526335   -1.734472    0.431339   -0.014535    0.197324    0.969397
O    -1.517817    1.850107   -0.136746    0.014536    0.197325   -0.969398
O     1.526336   -1.734471   -0.431340    0.014536    0.197325   -0.969398
O     1.517817    1.850107    0.136745   -0.014537    0.197324    0.969397
Si   -0.000000   -1.301050   -0.000000    0.000000   -0.076827    0.000001
Si    0.000000    1.256028   -0.000000   -0.000000   -0.076827    0.000001
Mg   -2.182887   -0.014620   -0.350805   -0.000000   -0.049897   -0.000001
Mg    2.182887   -0.014620    0.350806    0.000001   -0.049898    0.000000
O    -0.292292   -0.053907   -1.172724   -0.000002   -0.183978    0.000001
O     0.292290   -0.053907    1.172724    0.000001   -0.183978    0.000000
10
* Frequency(8)  258.8983
O    -1.527008   -1.725340    0.476205   -0.014535    0.197324    0.969397
O    -1.517144    1.859240   -0.181611    0.014536    0.197325   -0.969398
O     1.527008   -1.725338   -0.476205    0.014536    0.197325   -0.969398
O     1.517144    1.859239    0.181611   -0.014537    0.197324    0.969397
Si    0.000000   -1.304606   -0.000000    0.000000   -0.076827    0.000001
Si    0.000000    1.252473    0.000000   -0.000000   -0.076827    0.000001
Mg   -2.182887   -0.016930   -0.350805   -0.000000   -0.049897   -0.000001
Mg    2.182887   -0.016930    0.350806    0.000001   -0.049898    0.000000
O    -0.292292   -0.062422   -1.172724   -0.000002   -0.183978    0.000001
O     0.292291   -0.062422    1.172724    0.000001   -0.183978    0.000000
10
* Frequency(8)  258.8983
O    -1.527146   -1.723462    0.485428   -0.014535    0.197324    0.969397
O    -1.517005    1.861117   -0.190835    0.014536    0.197325   -0.969398
O     1.527147   -1.723461   -0.485429    0.014536    0.197325   -0.969398
O     1.517006    1.861117    0.190834   -0.014537    0.197324    0.969397
Si    0.000000   -1.305337   -0.000000    0.000000   -0.076827    0.000001
Si    0.000000    1.251742    0.000000   -0.000000   -0.076827    0.000001
Mg   -2.182887   -0.017404   -0.350805   -0.000000   -0.049897   -0.000001
Mg    2.182887   -0.017405    0.350806    0.000001   -0.049898    0.000000
O    -0.292292   -0.064173   -1.172724   -0.000002   -0.183978    0.000001
O     0.292291   -0.064173    1.172724    0.000001   -0.183978    0.000000
10
* Frequency(8)  258.8983
O    -1.526735   -1.729043    0.458010   -0.014535    0.197324    0.969397
O    -1.517417    1.855536   -0.163416    0.014536    0.197325   -0.969398
O     1.526736   -1.729042   -0.458010    0.014536    0.197325   -0.969398
O     1.517417    1.855536    0.163416   -0.014537    0.197324    0.969397
Si    0.000000   -1.303164   -0.000000    0.000000   -0.076827    0.000001
Si    0.000000    1.253915    0.000000   -0.000000   -0.076827    0.000001
Mg   -2.182887   -0.015993   -0.350805   -0.000000   -0.049897   -0.000001
Mg    2.182887   -0.015993    0.350806    0.000001   -0.049898    0.000000
O    -0.292292   -0.058969   -1.172724   -0.000002   -0.183978    0.000001
O     0.292291   -0.058969    1.172724    0.000001   -0.183978    0.000000
10
* Frequency(8)  258.8983
O    -1.525819   -1.741478    0.396921   -0.014535    0.197324    0.969397
O    -1.518333    1.843101   -0.102327    0.014536    0.197325   -0.969398
O     1.525820   -1.741477   -0.396921    0.014536    0.197325   -0.969398
O     1.518333    1.843101    0.102327   -0.014537    0.197324    0.969397
Si   -0.000000   -1.298322   -0.000000    0.000000   -0.076827    0.000001
Si    0.000000    1.258756   -0.000000   -0.000000   -0.076827    0.000001
Mg   -2.182887   -0.012849   -0.350805   -0.000000   -0.049897   -0.000001
Mg    2.182887   -0.012849    0.350806    0.000001   -0.049898    0.000000
O    -0.292292   -0.047375   -1.172724   -0.000002   -0.183978    0.000001
O     0.292290   -0.047375    1.172724    0.000001   -0.183978    0.000000
10
* Frequency(8)  258.8983
O    -1.524498   -1.759419    0.308782   -0.014535    0.197324    0.969397
O    -1.519654    1.825160   -0.014188    0.014536    0.197325   -0.969398
O     1.524498   -1.759418   -0.308782    0.014536    0.197325   -0.969398
O     1.519655    1.825160    0.014188   -0.014537    0.197324    0.969397
Si   -0.000000   -1.291337   -0.000000    0.000000   -0.076827    0.000001
Si    0.000000    1.265741   -0.000000   -0.000000   -0.076827    0.000001
Mg   -2.182887   -0.008312   -0.350804   -0.000000   -0.049897   -0.000001
Mg    2.182887   -0.008312    0.350806    0.000001   -0.049898    0.000000
O    -0.292292   -0.030648   -1.172724   -0.000002   -0.183978    0.000001
O     0.292290   -0.030648    1.172724    0.000001   -0.183978    0.000000
10
* Frequency(8)  258.8983
O    -1.522914   -1.780922    0.203143   -0.014535    0.197324    0.969397
O    -1.521238    1.803657    0.091451    0.014536    0.197325   -0.969398
O     1.522914   -1.780921   -0.203143    0.014536    0.197325   -0.969398
O     1.521239    1.803657   -0.091451   -0.014537    0.197324    0.969397
Si   -0.000000   -1.282965   -0.000000    0.000000   -0.076827    0.000001
Si    0.000000    1.274113   -0.000000   -0.000000   -0.076827    0.000001
Mg   -2.182887   -0.002875   -0.350804   -0.000000   -0.049897   -0.000001
Mg    2.182887   -0.002874    0.350806    0.000001   -0.049898    0.000000
O    -0.292291   -0.010599   -1.172724   -0.000002   -0.183978    0.000001
O     0.292290   -0.010599    1.172724    0.000001   -0.183978    0.000000
10
* Frequency(8)  258.8983
O    -1.521239   -1.803657    0.091453   -0.014535    0.197324    0.969397
O    -1.522913    1.780922    0.203141    0.014536    0.197325   -0.969398
O     1.521239   -1.803656   -0.091453    0.014536    0.197325   -0.969398
O     1.522914    1.780922   -0.203141   -0.014537    0.197324    0.969397
Si   -0.000000   -1.274113   -0.000001    0.000000   -0.076827    0.000001
Si    0.000000    1.282965   -0.000000   -0.000000   -0.076827    0.000001
Mg   -2.182887    0.002874   -0.350804   -0.000000   -0.049897   -0.000001
Mg    2.182887    0.002875    0.350806    0.000001   -0.049898    0.000000
O    -0.292291    0.010598   -1.172724   -0.000002   -0.183978    0.000001
O     0.292290    0.010598    1.172724    0.000001   -0.183978    0.000000
10
* Frequency(8)  258.8983
O    -1.519655   -1.825160   -0.014186   -0.014535    0.197324    0.969397
O    -1.524497    1.759419    0.308780    0.014536    0.197325   -0.969398
O     1.519655   -1.825159    0.014186    0.014536    0.197325   -0.969398
O     1.524498    1.759419   -0.308780   -0.014537    0.197324    0.969397
Si   -0.000000   -1.265741   -0.000001    0.000000   -0.076827    0.000001
Si    0.000000    1.291337   -0.000000   -0.000000   -0.076827    0.000001
Mg   -2.182887    0.008312   -0.350804   -0.000000   -0.049897   -0.000001
Mg    2.182887    0.008312    0.350806    0.000001   -0.049898    0.000000
O    -0.292291    0.030647   -1.172724   -0.000002   -0.183978    0.000001
O     0.292290    0.030647    1.172724    0.000001   -0.183978    0.000000
10
* Frequency(8)  258.8983
O    -1.518333   -1.843101   -0.102325   -0.014535    0.197324    0.969397
O    -1.525819    1.741478    0.396919    0.014536    0.197325   -0.969398
O     1.518333   -1.843101    0.102325    0.014536    0.197325   -0.969398
O     1.525820    1.741478   -0.396919   -0.014537    0.197324    0.969397
Si   -0.000000   -1.258756   -0.000001    0.000000   -0.076827    0.000001
Si    0.000000    1.298322   -0.000000   -0.000000   -0.076827    0.000001
Mg   -2.182887    0.012849   -0.350804   -0.000000   -0.049897   -0.000001
Mg    2.182887    0.012849    0.350806    0.000001   -0.049898    0.000000
O    -0.292291    0.047375   -1.172724   -0.000002   -0.183978    0.000001
O     0.292290    0.047375    1.172724    0.000001   -0.183978    0.000000
10
* Frequency(8)  258.8983
O    -1.517417   -1.855536   -0.163414   -0.014535    0.197324    0.969397
O    -1.526735    1.729043    0.458008    0.014536    0.197325   -0.969398
O     1.517417   -1.855536    0.163414    0.014536    0.197325   -0.969398
O     1.526736    1.729043   -0.458008   -0.014537    0.197324    0.969397
Si   -0.000000   -1.253915   -0.000001    0.000000   -0.076827    0.000001
Si    0.000000    1.303164   -0.000000   -0.000000   -0.076827    0.000001
Mg   -2.182887    0.015993   -0.350804   -0.000000   -0.049897   -0.000001
Mg    2.182887    0.015994    0.350805    0.000001   -0.049898    0.000000
O    -0.292290    0.058968   -1.172724   -0.000002   -0.183978    0.000001
O     0.292290    0.058969    1.172724    0.000001   -0.183978    0.000000
10
* Frequency(8)  258.8983
O    -1.517006   -1.861117   -0.190832   -0.014535    0.197324    0.969397
O    -1.527146    1.723462    0.485426    0.014536    0.197325   -0.969398
O     1.517006   -1.861117    0.190832    0.014536    0.197325   -0.969398
O     1.527147    1.723462   -0.485426   -0.014537    0.197324    0.969397
Si   -0.000000   -1.251742   -0.000001    0.000000   -0.076827    0.000001
Si    0.000000    1.305337   -0.000000   -0.000000   -0.076827    0.000001
Mg   -2.182887    0.017404   -0.350804   -0.000000   -0.049897   -0.000001
Mg    2.182887    0.017405    0.350805    0.000001   -0.049898    0.000000
O    -0.292290    0.064172   -1.172724   -0.000002   -0.183978    0.000001
O     0.292290    0.064172    1.172724    0.000001   -0.183978    0.000000
10
* Frequency(8)  258.8983
O    -1.517145   -1.859240   -0.181609   -0.014535    0.197324    0.969397
O    -1.527008    1.725339    0.476203    0.014536    0.197325   -0.969398
O     1.517145   -1.859239    0.181609    0.014536    0.197325   -0.969398
O     1.527009    1.725339   -0.476203   -0.014537    0.197324    0.969397
Si   -0.000000   -1.252473   -0.000001    0.000000   -0.076827    0.000001
Si    0.000000    1.304606   -0.000000   -0.000000   -0.076827    0.000001
Mg   -2.182887    0.016930   -0.350804   -0.000000   -0.049897   -0.000001
Mg    2.182887    0.016930    0.350805    0.000001   -0.049898    0.000000
O    -0.292290    0.062422   -1.172724   -0.000002   -0.183978    0.000001
O     0.292290    0.062422    1.172724    0.000001   -0.183978    0.000000
10
* Frequency(8)  258.8983
O    -1.517817   -1.850107   -0.136744   -0.014535    0.197324    0.969397
O    -1.526335    1.734472    0.431337    0.014536    0.197325   -0.969398
O     1.517817   -1.850107    0.136744    0.014536    0.197325   -0.969398
O     1.526336    1.734472   -0.431337   -0.014537    0.197324    0.969397
Si   -0.000000   -1.256028   -0.000001    0.000000   -0.076827    0.000001
Si    0.000000    1.301050   -0.000000   -0.000000   -0.076827    0.000001
Mg   -2.182887    0.014620   -0.350804   -0.000000   -0.049897   -0.000001
Mg    2.182887    0.014621    0.350805    0.000001   -0.049898    0.000000
O    -0.292291    0.053907   -1.172724   -0.000002   -0.183978    0.000001
O     0.292290    0.053907    1.172724    0.000001   -0.183978    0.000000
10
* Frequency(8)  258.8983
O    -1.518952   -1.834709   -0.061098   -0.014535    0.197324    0.969397
O    -1.525201    1.749870    0.355691    0.014536    0.197325   -0.969398
O     1.518952   -1.834709    0.061098    0.014536    0.197325   -0.969398
O     1.525202    1.749870   -0.355692   -0.014537    0.197324    0.969397
Si   -0.000000   -1.262024   -0.000001    0.000000   -0.076827    0.000001
Si    0.000000    1.295055   -0.000000   -0.000000   -0.076827    0.000001
Mg   -2.182887    0.010727   -0.350804   -0.000000   -0.049897   -0.000001
Mg    2.182887    0.010727    0.350806    0.000001   -0.049898    0.000000
O    -0.292291    0.039550   -1.172724   -0.000002   -0.183978    0.000001
O     0.292290    0.039550    1.172724    0.000001   -0.183978    0.000000
10
* Frequency(8)  258.8983
O    -1.520424   -1.814715    0.037131   -0.014535    0.197324    0.969397
O    -1.523728    1.769865    0.257463    0.014536    0.197325   -0.969398
O     1.520425   -1.814714   -0.037131    0.014536    0.197325   -0.969398
O     1.523729    1.769864   -0.257463   -0.014537    0.197324    0.969397
Si   -0.000000   -1.269808   -0.000001    0.000000   -0.076827    0.000001
Si    0.000000    1.287270   -0.000000   -0.000000   -0.076827    0.000001
Mg   -2.182887    0.005671   -0.350804   -0.000000   -0.049897   -0.000001
Mg    2.182887    0.005671    0.350806    0.000001   -0.049898    0.000000
O    -0.292291    0.020908   -1.172724   -0.000002   -0.183978    0.000001
O     0.292290    0.020908    1.172724    0.000001   -0.183978    0.000000
10
* Frequency(8)  258.8983
O    -1.522076   -1.792290    0.147298   -0.014535    0.197324    0.969397
O    -1.522076    1.792290    0.147296    0.014536    0.197325   -0.969398
O     1.522077   -1.792289   -0.147298    0.014536    0.197325   -0.969398
O     1.522077    1.792289   -0.147296   -0.014537    0.197324    0.969397
Si   -0.000000   -1.278539   -0.000001    0.000000   -0.076827    0.000001
Si    0.000000    1.278539   -0.000000   -0.000000   -0.076827    0.000001
Mg   -2.182887   -0.000000   -0.350804   -0.000000   -0.049897   -0.000001
Mg    2.182887    0.000000    0.350806    0.000001   -0.049898    0.000000
O    -0.292291   -0.000000   -1.172724   -0.000002   -0.183978    0.000001
O     0.292290   -0.000000    1.172724    0.000001   -0.183978    0.000000
