10
* (null), Energy   -1000.0000000
O    -1.522076   -1.792290    0.147298   -0.030712    0.240533   -0.334973
O    -1.522076    1.792290    0.147296    0.030709    0.240546    0.334975
O     1.522077   -1.792289   -0.147298   -0.030713   -0.240536   -0.334974
O     1.522077    1.792289   -0.147296    0.030709   -0.240547    0.334976
Si   -0.000000   -1.278539   -0.000001    0.117058   -0.000001   -0.174483
Si    0.000000    1.278539   -0.000000   -0.117063   -0.000001    0.174486
Mg   -2.182887   -0.000000   -0.350804   -0.000002   -0.062942    0.000001
Mg    2.182887    0.000000    0.350806   -0.000001    0.062944    0.000001
O    -0.292291   -0.000000   -1.172724    0.000010   -1.268804   -0.000008
O     0.292290   -0.000000    1.172724    0.000010    1.268808   -0.000003
10
* Frequency(22)  623.6189
O    -1.525567   -1.764954    0.109230   -0.030712    0.240533   -0.334973
O    -1.518586    1.819626    0.185364    0.030709    0.240546    0.334975
O     1.518586   -1.819624   -0.185366   -0.030713   -0.240536   -0.334974
O     1.525566    1.764952   -0.109228    0.030709   -0.240547    0.334976
Si    0.013303   -1.278539   -0.019830    0.117058   -0.000001   -0.174483
Si   -0.013303    1.278539    0.019829   -0.117063   -0.000001    0.174486
Mg   -2.182887   -0.007153   -0.350804   -0.000002   -0.062942    0.000001
Mg    2.182887    0.007153    0.350806   -0.000001    0.062944    0.000001
O    -0.292290   -0.144193   -1.172725    0.000010   -1.268804   -0.000008
O     0.292291    0.144193    1.172723    0.000010    1.268808   -0.000003
10
* Frequency(22)  623.6189
O    -1.528679   -1.740581    0.075287   -0.030712    0.240533   -0.334973
O    -1.515474    1.844001    0.219307    0.030709    0.240546    0.334975
O     1.515474   -1.843998   -0.219309   -0.030713   -0.240536   -0.334974
O     1.528678    1.740578   -0.075285    0.030709   -0.240547    0.334976
Si    0.025164   -1.278539   -0.037510    0.117058   -0.000001   -0.174483
Si   -0.025165    1.278539    0.037510   -0.117063   -0.000001    0.174486
Mg   -2.182887   -0.013531   -0.350804   -0.000002   -0.062942    0.000001
Mg    2.182887    0.013531    0.350806   -0.000001    0.062944    0.000001
O    -0.292289   -0.272761   -1.172725    0.000010   -1.268804   -0.000008
O     0.292292    0.272761    1.172723    0.000010    1.268808   -0.000003
10
* Frequency(22)  623.6189
O    -1.531075   -1.721812    0.049148   -0.030712    0.240533   -0.334973
O    -1.513078    1.862772    0.245446    0.030709    0.240546    0.334975
O     1.513077   -1.862768   -0.245448   -0.030713   -0.240536   -0.334974
O     1.531075    1.721807   -0.049145    0.030709   -0.240547    0.334976
Si    0.034299   -1.278540   -0.051125    0.117058   -0.000001   -0.174483
Si   -0.034300    1.278539    0.051126   -0.117063   -0.000001    0.174486
Mg   -2.182888   -0.018443   -0.350804   -0.000002   -0.062942    0.000001
Mg    2.182887    0.018443    0.350806   -0.000001    0.062944    0.000001
O    -0.292288   -0.371770   -1.172726    0.000010   -1.268804   -0.000008
O     0.292293    0.371771    1.172723    0.000010    1.268808   -0.000003
10
* Frequency(22)  623.6189
O    -1.532496   -1.710679    0.033645   -0.030712    0.240533   -0.334973
O    -1.511657    1.873905    0.260949    0.030709    0.240546    0.334975
O     1.511656   -1.873900   -0.260952   -0.030713   -0.240536   -0.334974
O     1.532496    1.710674   -0.033642    0.030709   -0.240547    0.334976
Si    0.039717   -1.278540   -0.059201    0.117058   -0.000001   -0.174483
Si   -0.039718    1.278539    0.059201   -0.117063   -0.000001    0.174486
Mg   -2.182888   -0.021356   -0.350804   -0.000002   -0.062942    0.000001
Mg    2.182887    0.021356    0.350806   -0.000001    0.062944    0.000001
O    -0.292288   -0.430493   -1.172726    0.000010   -1.268804   -0.000008
O     0.292294    0.430494    1.172723    0.000010    1.268808   -0.000003
10
* Frequency(22)  623.6189
O    -1.532789   -1.708391    0.030458   -0.030712    0.240533   -0.334973
O    -1.511365    1.876193    0.264137    0.030709    0.240546    0.334975
O     1.511364   -1.876189   -0.264139   -0.030713   -0.240536   -0.334974
O     1.532788    1.708386   -0.030455    0.030709   -0.240547    0.334976
Si    0.040830   -1.278540   -0.060861    0.117058   -0.000001   -0.174483
Si   -0.040832    1.278539    0.060861   -0.117063   -0.000001    0.174486
Mg   -2.182888   -0.021955   -0.350804   -0.000002   -0.062942    0.000001
Mg    2.182887    0.021955    0.350806   -0.000001    0.062944    0.000001
O    -0.292288   -0.442565   -1.172726    0.000010   -1.268804   -0.000008
O     0.292294    0.442566    1.172723    0.000010    1.268808   -0.000003
10
* Frequency(22)  623.6189
O    -1.531920   -1.715194    0.039932   -0.030712    0.240533   -0.334973
O    -1.512233    1.869390    0.254662    0.030709    0.240546    0.334975
O     1.512232   -1.869385   -0.254664   -0.030713   -0.240536   -0.334974
O     1.531919    1.715189   -0.039929    0.030709   -0.240547    0.334976
Si    0.037519   -1.278540   -0.055926    0.117058   -0.000001   -0.174483
Si   -0.037521    1.278539    0.055926   -0.117063   -0.000001    0.174486
Mg   -2.182888   -0.020174   -0.350804   -0.000002   -0.062942    0.000001
Mg    2.182887    0.020175    0.350806   -0.000001    0.062944    0.000001
O    -0.292288   -0.406678   -1.172726    0.000010   -1.268804   -0.000008
O     0.292293    0.406679    1.172723    0.000010    1.268808   -0.000003
10
* Frequency(22)  623.6189
O    -1.529985   -1.730352    0.061041   -0.030712    0.240533   -0.334973
O    -1.514168    1.854231    0.233553    0.030709    0.240546    0.334975
O     1.514168   -1.854227   -0.233555   -0.030713   -0.240536   -0.334974
O     1.529984    1.730348   -0.061039    0.030709   -0.240547    0.334976
Si    0.030143   -1.278540   -0.044930    0.117058   -0.000001   -0.174483
Si   -0.030144    1.278539    0.044930   -0.117063   -0.000001    0.174486
Mg   -2.182888   -0.016208   -0.350804   -0.000002   -0.062942    0.000001
Mg    2.182887    0.016208    0.350806   -0.000001    0.062944    0.000001
O    -0.292289   -0.326722   -1.172726    0.000010   -1.268804   -0.000008
O     0.292293    0.326722    1.172723    0.000010    1.268808   -0.000003
10
* Frequency(22)  623.6189
O    -1.527192   -1.752221    0.091498   -0.030712    0.240533   -0.334973
O    -1.516960    1.832360    0.203096    0.030709    0.240546    0.334975
O     1.516960   -1.832357   -0.203099   -0.030713   -0.240536   -0.334974
O     1.527192    1.752219   -0.091495    0.030709   -0.240547    0.334976
Si    0.019500   -1.278539   -0.029066    0.117058   -0.000001   -0.174483
Si   -0.019500    1.278539    0.029066   -0.117063   -0.000001    0.174486
Mg   -2.182887   -0.010485   -0.350804   -0.000002   -0.062942    0.000001
Mg    2.182887    0.010485    0.350806   -0.000001    0.062944    0.000001
O    -0.292289   -0.211360   -1.172725    0.000010   -1.268804   -0.000008
O     0.292292    0.211360    1.172723    0.000010    1.268808   -0.000003
10
* Frequency(22)  623.6189
O    -1.523846   -1.778433    0.128001   -0.030712    0.240533   -0.334973
O    -1.520307    1.806147    0.166593    0.030709    0.240546    0.334975
O     1.520307   -1.806145   -0.166595   -0.030713   -0.240536   -0.334974
O     1.523846    1.778432   -0.127999    0.030709   -0.240547    0.334976
Si    0.006743   -1.278539   -0.010052    0.117058   -0.000001   -0.174483
Si   -0.006744    1.278539    0.010052   -0.117063   -0.000001    0.174486
Mg   -2.182887   -0.003626   -0.350804   -0.000002   -0.062942    0.000001
Mg    2.182887    0.003626    0.350806   -0.000001    0.062944    0.000001
O    -0.292291   -0.073094   -1.172724    0.000010   -1.268804   -0.000008
O     0.292291    0.073093    1.172724    0.000010    1.268808   -0.000003
10
* Frequency(22)  623.6189
O    -1.520307   -1.806146    0.166595   -0.030712    0.240533   -0.334973
O    -1.523845    1.778432    0.127998    0.030709    0.240546    0.334975
O     1.523846   -1.778432   -0.128001   -0.030713   -0.240536   -0.334974
O     1.520308    1.806147   -0.166593    0.030709   -0.240547    0.334976
Si   -0.006744   -1.278539    0.010051    0.117058   -0.000001   -0.174483
Si    0.006744    1.278539   -0.010052   -0.117063   -0.000001    0.174486
Mg   -2.182887    0.003626   -0.350804   -0.000002   -0.062942    0.000001
Mg    2.182887   -0.003626    0.350806   -0.000001    0.062944    0.000001
O    -0.292292    0.073093   -1.172723    0.000010   -1.268804   -0.000008
O     0.292289   -0.073094    1.172724    0.000010    1.268808   -0.000003
10
* Frequency(22)  623.6189
O    -1.516960   -1.832358    0.203098   -0.030712    0.240533   -0.334973
O    -1.527191    1.752219    0.091495    0.030709    0.240546    0.334975
O     1.527193   -1.752220   -0.091498   -0.030713   -0.240536   -0.334974
O     1.516961    1.832360   -0.203097    0.030709   -0.240547    0.334976
Si   -0.019500   -1.278539    0.029065    0.117058   -0.000001   -0.174483
Si    0.019501    1.278539   -0.029066   -0.117063   -0.000001    0.174486
Mg   -2.182887    0.010485   -0.350804   -0.000002   -0.062942    0.000001
Mg    2.182887   -0.010485    0.350806   -0.000001    0.062944    0.000001
O    -0.292293    0.211359   -1.172723    0.000010   -1.268804   -0.000008
O     0.292288   -0.211360    1.172724    0.000010    1.268808   -0.000003
10
* Frequency(22)  623.6189
O    -1.514168   -1.854228    0.233555   -0.030712    0.240533   -0.334973
O    -1.529983    1.730348    0.061039    0.030709    0.240546    0.334975
O     1.529985   -1.730350   -0.061041   -0.030713   -0.240536   -0.334974
O     1.514169    1.854231   -0.233553    0.030709   -0.240547    0.334976
Si   -0.030143   -1.278539    0.044929    0.117058   -0.000001   -0.174483
Si    0.030144    1.278539   -0.044931   -0.117063   -0.000001    0.174486
Mg   -2.182887    0.016208   -0.350804   -0.000002   -0.062942    0.000001
Mg    2.182887   -0.016208    0.350805   -0.000001    0.062944    0.000001
O    -0.292294    0.326721   -1.172722    0.000010   -1.268804   -0.000008
O     0.292287   -0.326722    1.172724    0.000010    1.268808   -0.000003
10
* Frequency(22)  623.6189
O    -1.512233   -1.869386    0.254664   -0.030712    0.240533   -0.334973
O    -1.531919    1.715190    0.039929    0.030709    0.240546    0.334975
O     1.531921   -1.715192   -0.039932   -0.030713   -0.240536   -0.334974
O     1.512234    1.869389   -0.254663    0.030709   -0.240547    0.334976
Si   -0.037519   -1.278539    0.055925    0.117058   -0.000001   -0.174483
Si    0.037521    1.278539   -0.055926   -0.117063   -0.000001    0.174486
Mg   -2.182887    0.020174   -0.350805   -0.000002   -0.062942    0.000001
Mg    2.182887   -0.020175    0.350805   -0.000001    0.062944    0.000001
O    -0.292294    0.406678   -1.172721    0.000010   -1.268804   -0.000008
O     0.292287   -0.406679    1.172725    0.000010    1.268808   -0.000003
10
* Frequency(22)  623.6189
O    -1.511364   -1.876189    0.264138   -0.030712    0.240533   -0.334973
O    -1.532787    1.708386    0.030455    0.030709    0.240546    0.334975
O     1.532789   -1.708389   -0.030457   -0.030713   -0.240536   -0.334974
O     1.511365    1.876193   -0.264137    0.030709   -0.240547    0.334976
Si   -0.040830   -1.278539    0.060860    0.117058   -0.000001   -0.174483
Si    0.040832    1.278539   -0.060862   -0.117063   -0.000001    0.174486
Mg   -2.182887    0.021954   -0.350805   -0.000002   -0.062942    0.000001
Mg    2.182887   -0.021955    0.350805   -0.000001    0.062944    0.000001
O    -0.292295    0.442564   -1.172721    0.000010   -1.268804   -0.000008
O     0.292286   -0.442566    1.172725    0.000010    1.268808   -0.000003
10
* Frequency(22)  623.6189
O    -1.511656   -1.873900    0.260951   -0.030712    0.240533   -0.334973
O    -1.532495    1.710675    0.033642    0.030709    0.240546    0.334975
O     1.532497   -1.710677   -0.033645   -0.030713   -0.240536   -0.334974
O     1.511657    1.873904   -0.260950    0.030709   -0.240547    0.334976
Si   -0.039717   -1.278539    0.059200    0.117058   -0.000001   -0.174483
Si    0.039719    1.278539   -0.059201   -0.117063   -0.000001    0.174486
Mg   -2.182887    0.021356   -0.350805   -0.000002   -0.062942    0.000001
Mg    2.182887   -0.021356    0.350805   -0.000001    0.062944    0.000001
O    -0.292295    0.430492   -1.172721    0.000010   -1.268804   -0.000008
O     0.292287   -0.430494    1.172725    0.000010    1.268808   -0.000003
10
* Frequency(22)  623.6189
O    -1.513078   -1.862768    0.245448   -0.030712    0.240533   -0.334973
O    -1.531074    1.721808    0.049145    0.030709    0.240546    0.334975
O     1.531076   -1.721810   -0.049148   -0.030713   -0.240536   -0.334974
O     1.513079    1.862771   -0.245447    0.030709   -0.240547    0.334976
Si   -0.034299   -1.278539    0.051124    0.117058   -0.000001   -0.174483
Si    0.034301    1.278539   -0.051126   -0.117063   -0.000001    0.174486
Mg   -2.182887    0.018443   -0.350804   -0.000002   -0.062942    0.000001
Mg    2.182887   -0.018443    0.350805   -0.000001    0.062944    0.000001
O    -0.292294    0.371770   -1.172722    0.000010   -1.268804   -0.000008
O     0.292287   -0.371771    1.172724    0.000010    1.268808   -0.000003
10
* Frequency(22)  623.6189
O    -1.515474   -1.843998    0.219309   -0.030712    0.240533   -0.334973
O    -1.528677    1.740578    0.075285    0.030709    0.240546    0.334975
O     1.528679   -1.740580   -0.075287   -0.030713   -0.240536   -0.334974
O     1.515475    1.844001   -0.219307    0.030709   -0.240547    0.334976
Si   -0.025164   -1.278539    0.037509    0.117058   -0.000001   -0.174483
Si    0.025166    1.278539   -0.037510   -0.117063   -0.000001    0.174486
Mg   -2.182887    0.013531   -0.350804   -0.000002   -0.062942    0.000001
Mg    2.182887   -0.013531    0.350805   -0.000001    0.062944    0.000001
O    -0.292293    0.272760   -1.172722    0.000010   -1.268804   -0.000008
O     0.292288   -0.272761    1.172724    0.000010    1.268808   -0.000003
10
* Frequency(22)  623.6189
O    -1.518586   -1.819625    0.185366   -0.030712    0.240533   -0.334973
O    -1.525566    1.764953    0.109228    0.030709    0.240546    0.334975
O     1.525567   -1.764953   -0.109230   -0.030713   -0.240536   -0.334974
O     1.518587    1.819626   -0.185364    0.030709   -0.240547    0.334976
Si   -0.013303   -1.278539    0.019829    0.117058   -0.000001   -0.174483
Si    0.013304    1.278539   -0.019830   -0.117063   -0.000001    0.174486
Mg   -2.182887    0.007153   -0.350804   -0.000002   -0.062942    0.000001
Mg    2.182887   -0.007153    0.350806   -0.000001    0.062944    0.000001
O    -0.292292    0.144193   -1.172723    0.000010   -1.268804   -0.000008
O     0.292289   -0.144194    1.172724    0.000010    1.268808   -0.000003
10
* Frequency(22)  623.6189
O    -1.522076   -1.792290    0.147298   -0.030712    0.240533   -0.334973
O    -1.522076    1.792290    0.147296    0.030709    0.240546    0.334975
O     1.522077   -1.792289   -0.147298   -0.030713   -0.240536   -0.334974
O     1.522077    1.792289   -0.147296    0.030709   -0.240547    0.334976
Si   -0.000000   -1.278539   -0.000001    0.117058   -0.000001   -0.174483
Si    0.000000    1.278539   -0.000000   -0.117063   -0.000001    0.174486
Mg   -2.182887   -0.000000   -0.350804   -0.000002   -0.062942    0.000001
Mg    2.182887    0.000000    0.350806   -0.000001    0.062944    0.000001
O    -0.292291   -0.000000   -1.172724    0.000010   -1.268804   -0.000008
O     0.292290   -0.000000    1.172724    0.000010    1.268808   -0.000003
