10
Coordinates from ORCA-job orca E -1429.352174745068
  O      -1.507982     -1.792352      0.146175
  O      -1.507982      1.792352      0.146175
  O       1.507982     -1.792352     -0.146175
  O       1.507982      1.792352     -0.146175
  Si     -0.000000     -1.263748      0.000000
  Si     -0.000000      1.263748      0.000000
  Mg     -2.175375     -0.000000     -0.347485
  Mg      2.175375      0.000000      0.347485
  O      -0.287856     -0.000000     -1.173206
  O       0.287856      0.000000      1.173206
10
Coordinates from ORCA-job orca E -1429.352435521236
  O      -1.511597     -1.792949      0.146445
  O      -1.511597      1.792949      0.146444
  O       1.511597     -1.792949     -0.146445
  O       1.511597      1.792949     -0.146445
  Si      0.000000     -1.266229     -0.000000
  Si      0.000000      1.266229     -0.000000
  Mg     -2.176987     -0.000000     -0.348063
  Mg      2.176987     -0.000000      0.348063
  O      -0.288780     -0.000000     -1.173702
  O       0.288780     -0.000000      1.173702
10
Coordinates from ORCA-job orca E -1429.352803872081
  O      -1.522131     -1.794148      0.147159
  O      -1.522131      1.794148      0.147157
  O       1.522131     -1.794148     -0.147160
  O       1.522131      1.794148     -0.147158
  Si      0.000000     -1.274656     -0.000000
  Si      0.000000      1.274656     -0.000000
  Mg     -2.181996     -0.000000     -0.349840
  Mg      2.181996     -0.000000      0.349842
  O      -0.291583     -0.000000     -1.174519
  O       0.291582      0.000000      1.174520
10
Coordinates from ORCA-job orca E -1429.352822934173
  O      -1.522677     -1.793843      0.147148
  O      -1.522677      1.793843      0.147145
  O       1.522677     -1.793843     -0.147148
  O       1.522677      1.793843     -0.147146
  Si      0.000000     -1.276012     -0.000000
  Si      0.000000      1.276012     -0.000000
  Mg     -2.182506     -0.000000     -0.350031
  Mg      2.182506     -0.000000      0.350033
  O      -0.291845     -0.000000     -1.174081
  O       0.291843      0.000000      1.174082
10
Coordinates from ORCA-job orca E -1429.352847216077
  O      -1.522653     -1.792724      0.147092
  O      -1.522653      1.792724      0.147090
  O       1.522653     -1.792724     -0.147092
  O       1.522653      1.792724     -0.147090
  Si      0.000000     -1.278627     -0.000000
  Si      0.000000      1.278627     -0.000000
  Mg     -2.183173      0.000000     -0.350440
  Mg      2.183173      0.000000      0.350441
  O      -0.292222     -0.000001     -1.172782
  O       0.292221     -0.000000      1.172782
10
Coordinates from ORCA-job orca E -1429.352848126437
  O      -1.522266     -1.792460      0.147160
  O      -1.522265      1.792460      0.147158
  O       1.522266     -1.792459     -0.147160
  O       1.522266      1.792460     -0.147158
  Si      0.000000     -1.278643     -0.000001
  Si      0.000000      1.278643     -0.000000
  Mg     -2.183031     -0.000000     -0.350586
  Mg      2.183031      0.000000      0.350587
  O      -0.292233     -0.000000     -1.172667
  O       0.292232     -0.000000      1.172667
10
Coordinates from ORCA-job orca E -1429.352848326076
  O      -1.522076     -1.792290      0.147298
  O      -1.522076      1.792290      0.147296
  O       1.522077     -1.792289     -0.147298
  O       1.522077      1.792289     -0.147296
  Si     -0.000000     -1.278539     -0.000001
  Si      0.000000      1.278539     -0.000000
  Mg     -2.182887     -0.000000     -0.350804
  Mg      2.182887      0.000000      0.350806
  O      -0.292291     -0.000000     -1.172724
  O       0.292290     -0.000000      1.172724
