! RIJCOSX PBE0 def2-SVP def2/J TightOpt Freq 
%scf maxiter 600 end 
%maxcore 1000 
%pal nprocs 20 end 
*xyz 0 1 
O -1.507982 -1.792352 0.146175
O -1.507982 1.792352 0.146175
O 1.507982 -1.792352 -0.146175
O 1.507982 1.792352 -0.146175
Si -0.0 -1.263748 0.0
Si -0.0 1.263748 0.0
Mg -2.175375 -0.0 -0.347485
Mg 2.175375 0.0 0.347485
O -0.287856 -0.0 -1.173206
O 0.287856 0.0 1.173206
*
