10
* (null), Energy   -1000.0000000
O    -1.522076   -1.792290    0.147298   -0.076194   -0.090379    0.272052
O    -1.522076    1.792290    0.147296   -0.076208    0.090375    0.272055
O     1.522077   -1.792289   -0.147298   -0.076212    0.090377    0.272055
O     1.522077    1.792289   -0.147296   -0.076199   -0.090382    0.272053
Si   -0.000000   -1.278539   -0.000001   -0.091495    0.000020   -0.786056
Si    0.000000    1.278539   -0.000000   -0.091494    0.000016   -0.786054
Mg   -2.182887   -0.000000   -0.350804    0.103382    0.000007   -0.152501
Mg    2.182887    0.000000    0.350806    0.103382    0.000007   -0.152501
O    -0.292291   -0.000000   -1.172724    0.155973   -0.000040    1.067481
O     0.292290   -0.000000    1.172724    0.155967   -0.000034    1.067465
10
* Frequency(25)  765.9514
O    -1.530735   -1.802561    0.178215   -0.076194   -0.090379    0.272052
O    -1.530737    1.802560    0.178213   -0.076208    0.090375    0.272055
O     1.513415   -1.782018   -0.116380   -0.076212    0.090377    0.272055
O     1.513417    1.782018   -0.116379   -0.076199   -0.090382    0.272053
Si   -0.010398   -1.278537   -0.089332   -0.091495    0.000020   -0.786056
Si   -0.010398    1.278541   -0.089331   -0.091494    0.000016   -0.786054
Mg   -2.171138    0.000001   -0.368135    0.103382    0.000007   -0.152501
Mg    2.194636    0.000001    0.333475    0.103382    0.000007   -0.152501
O    -0.274566   -0.000005   -1.051410    0.155973   -0.000040    1.067481
O     0.310015   -0.000004    1.294036    0.155967   -0.000034    1.067465
10
* Frequency(25)  765.9514
O    -1.538456   -1.811719    0.205782   -0.076194   -0.090379    0.272052
O    -1.538459    1.811718    0.205781   -0.076208    0.090375    0.272055
O     1.505693   -1.772860   -0.088813   -0.076212    0.090377    0.272055
O     1.505696    1.772859   -0.088812   -0.076199   -0.090382    0.272053
Si   -0.019669   -1.278535   -0.168982   -0.091495    0.000020   -0.786056
Si   -0.019669    1.278543   -0.168982   -0.091494    0.000016   -0.786054
Mg   -2.160663    0.000001   -0.383588    0.103382    0.000007   -0.152501
Mg    2.205112    0.000002    0.318022    0.103382    0.000007   -0.152501
O    -0.258761   -0.000009   -0.943243    0.155973   -0.000040    1.067481
O     0.325819   -0.000008    1.402201    0.155967   -0.000034    1.067465
10
* Frequency(25)  765.9514
O    -1.544402   -1.818772    0.227011   -0.076194   -0.090379    0.272052
O    -1.544405    1.818770    0.227010   -0.076208    0.090375    0.272055
O     1.499746   -1.765807   -0.067584   -0.076212    0.090377    0.272055
O     1.499750    1.765807   -0.067582   -0.076199   -0.090382    0.272053
Si   -0.026809   -1.278534   -0.230321   -0.091495    0.000020   -0.786056
Si   -0.026808    1.278544   -0.230320   -0.091494    0.000016   -0.786054
Mg   -2.152595    0.000002   -0.395488    0.103382    0.000007   -0.152501
Mg    2.213179    0.000002    0.306122    0.103382    0.000007   -0.152501
O    -0.246590   -0.000012   -0.859943    0.155973   -0.000040    1.067481
O     0.337990   -0.000010    1.485500    0.155967   -0.000034    1.067465
10
* Frequency(25)  765.9514
O    -1.547928   -1.822954    0.239603   -0.076194   -0.090379    0.272052
O    -1.547933    1.822953    0.239601   -0.076208    0.090375    0.272055
O     1.496218   -1.761625   -0.054993   -0.076212    0.090377    0.272055
O     1.496223    1.761624   -0.054991   -0.076199   -0.090382    0.272053
Si   -0.031043   -1.278533   -0.266701   -0.091495    0.000020   -0.786056
Si   -0.031043    1.278545   -0.266700   -0.091494    0.000016   -0.786054
Mg   -2.147811    0.000002   -0.402546    0.103382    0.000007   -0.152501
Mg    2.217964    0.000002    0.299064    0.103382    0.000007   -0.152501
O    -0.239371   -0.000014   -0.810538    0.155973   -0.000040    1.067481
O     0.345208   -0.000012    1.534904    0.155967   -0.000034    1.067465
10
* Frequency(25)  765.9514
O    -1.548653   -1.823814    0.242191   -0.076194   -0.090379    0.272052
O    -1.548658    1.823813    0.242190   -0.076208    0.090375    0.272055
O     1.495493   -1.760765   -0.052404   -0.076212    0.090377    0.272055
O     1.495498    1.760764   -0.052403   -0.076199   -0.090382    0.272053
Si   -0.031914   -1.278532   -0.274180   -0.091495    0.000020   -0.786056
Si   -0.031913    1.278545   -0.274179   -0.091494    0.000016   -0.786054
Mg   -2.146827    0.000002   -0.403997    0.103382    0.000007   -0.152501
Mg    2.218947    0.000002    0.297613    0.103382    0.000007   -0.152501
O    -0.237887   -0.000014   -0.800381    0.155973   -0.000040    1.067481
O     0.346692   -0.000012    1.545060    0.155967   -0.000034    1.067465
10
* Frequency(25)  765.9514
O    -1.546498   -1.821258    0.234496   -0.076194   -0.090379    0.272052
O    -1.546502    1.821257    0.234495   -0.076208    0.090375    0.272055
O     1.497649   -1.763321   -0.060099   -0.076212    0.090377    0.272055
O     1.497653    1.763320   -0.060098   -0.076199   -0.090382    0.272053
Si   -0.029326   -1.278533   -0.251948   -0.091495    0.000020   -0.786056
Si   -0.029325    1.278544   -0.251947   -0.091494    0.000016   -0.786054
Mg   -2.149751    0.000002   -0.399684    0.103382    0.000007   -0.152501
Mg    2.216023    0.000002    0.301926    0.103382    0.000007   -0.152501
O    -0.242299   -0.000013   -0.830574    0.155973   -0.000040    1.067481
O     0.342281   -0.000011    1.514868    0.155967   -0.000034    1.067465
10
* Frequency(25)  765.9514
O    -1.541697   -1.815563    0.217352   -0.076194   -0.090379    0.272052
O    -1.541700    1.815562    0.217351   -0.076208    0.090375    0.272055
O     1.502452   -1.769016   -0.077243   -0.076212    0.090377    0.272055
O     1.502455    1.769016   -0.077242   -0.076199   -0.090382    0.272053
Si   -0.023560   -1.278534   -0.202413   -0.091495    0.000020   -0.786056
Si   -0.023560    1.278543   -0.202412   -0.091494    0.000016   -0.786054
Mg   -2.156266    0.000002   -0.390074    0.103382    0.000007   -0.152501
Mg    2.209508    0.000002    0.311536    0.103382    0.000007   -0.152501
O    -0.252128   -0.000011   -0.897844    0.155973   -0.000040    1.067481
O     0.332452   -0.000009    1.447599    0.155967   -0.000034    1.067465
10
* Frequency(25)  765.9514
O    -1.534769   -1.807345    0.192617   -0.076194   -0.090379    0.272052
O    -1.534771    1.807344    0.192615   -0.076208    0.090375    0.272055
O     1.509381   -1.777234   -0.101979   -0.076212    0.090377    0.272055
O     1.509383    1.777233   -0.101977   -0.076199   -0.090382    0.272053
Si   -0.015241   -1.278536   -0.130943   -0.091495    0.000020   -0.786056
Si   -0.015241    1.278542   -0.130942   -0.091494    0.000016   -0.786054
Mg   -2.165666    0.000001   -0.376208    0.103382    0.000007   -0.152501
Mg    2.200109    0.000001    0.325402    0.103382    0.000007   -0.152501
O    -0.266309   -0.000007   -0.994901    0.155973   -0.000040    1.067481
O     0.318271   -0.000006    1.350544    0.155967   -0.000034    1.067465
10
* Frequency(25)  765.9514
O    -1.526466   -1.797496    0.162970   -0.076194   -0.090379    0.272052
O    -1.526466    1.797496    0.162968   -0.076208    0.090375    0.272055
O     1.517686   -1.787082   -0.131626   -0.076212    0.090377    0.272055
O     1.517687    1.787083   -0.131624   -0.076199   -0.090382    0.272053
Si   -0.005271   -1.278538   -0.045284   -0.091495    0.000020   -0.786056
Si   -0.005271    1.278540   -0.045283   -0.091494    0.000016   -0.786054
Mg   -2.176931    0.000000   -0.359590    0.103382    0.000007   -0.152501
Mg    2.188843    0.000001    0.342020    0.103382    0.000007   -0.152501
O    -0.283306   -0.000003   -1.111228    0.155973   -0.000040    1.067481
O     0.301275   -0.000002    1.234218    0.155967   -0.000034    1.067465
10
* Frequency(25)  765.9514
O    -1.517687   -1.787083    0.131625   -0.076194   -0.090379    0.272052
O    -1.517686    1.787083    0.131623   -0.076208    0.090375    0.272055
O     1.526467   -1.797495   -0.162971   -0.076212    0.090377    0.272055
O     1.526466    1.797496   -0.162969   -0.076199   -0.090382    0.272053
Si    0.005271   -1.278540    0.045283   -0.091495    0.000020   -0.786056
Si    0.005271    1.278538    0.045283   -0.091494    0.000016   -0.786054
Mg   -2.188843   -0.000000   -0.342019    0.103382    0.000007   -0.152501
Mg    2.176931   -0.000000    0.359591    0.103382    0.000007   -0.152501
O    -0.301276    0.000002   -1.234219    0.155973   -0.000040    1.067481
O     0.283305    0.000002    1.111229    0.155967   -0.000034    1.067465
10
* Frequency(25)  765.9514
O    -1.509384   -1.777234    0.101979   -0.076194   -0.090379    0.272052
O    -1.509381    1.777235    0.101976   -0.076208    0.090375    0.272055
O     1.534772   -1.807344   -0.192617   -0.076212    0.090377    0.272055
O     1.534770    1.807345   -0.192615   -0.076199   -0.090382    0.272053
Si    0.015241   -1.278543    0.130942   -0.091495    0.000020   -0.786056
Si    0.015241    1.278536    0.130942   -0.091494    0.000016   -0.786054
Mg   -2.200109   -0.000001   -0.325400    0.103382    0.000007   -0.152501
Mg    2.165666   -0.000001    0.376209    0.103382    0.000007   -0.152501
O    -0.318273    0.000006   -1.350546    0.155973   -0.000040    1.067481
O     0.266309    0.000006    0.994904    0.155967   -0.000034    1.067465
10
* Frequency(25)  765.9514
O    -1.502456   -1.769017    0.077244   -0.076194   -0.090379    0.272052
O    -1.502452    1.769018    0.077241   -0.076208    0.090375    0.272055
O     1.541701   -1.815561   -0.217353   -0.076212    0.090377    0.272055
O     1.541698    1.815563   -0.217351   -0.076199   -0.090382    0.272053
Si    0.023560   -1.278544    0.202411   -0.091495    0.000020   -0.786056
Si    0.023560    1.278535    0.202411   -0.091494    0.000016   -0.786054
Mg   -2.209508   -0.000002   -0.311535    0.103382    0.000007   -0.152501
Mg    2.156266   -0.000002    0.390075    0.103382    0.000007   -0.152501
O    -0.332455    0.000010   -1.447604    0.155973   -0.000040    1.067481
O     0.252128    0.000009    0.897848    0.155967   -0.000034    1.067465
10
* Frequency(25)  765.9514
O    -1.497655   -1.763321    0.060100   -0.076194   -0.090379    0.272052
O    -1.497650    1.763323    0.060096   -0.076208    0.090375    0.272055
O     1.546504   -1.821256   -0.234497   -0.076212    0.090377    0.272055
O     1.546500    1.821259   -0.234495   -0.076199   -0.090382    0.272053
Si    0.029326   -1.278546    0.251947   -0.091495    0.000020   -0.786056
Si    0.029326    1.278534    0.251946   -0.091494    0.000016   -0.786054
Mg   -2.216023   -0.000002   -0.301924    0.103382    0.000007   -0.152501
Mg    2.149751   -0.000002    0.399685    0.103382    0.000007   -0.152501
O    -0.342284    0.000013   -1.514874    0.155973   -0.000040    1.067481
O     0.242299    0.000011    0.830579    0.155967   -0.000034    1.067465
10
* Frequency(25)  765.9514
O    -1.495499   -1.760765    0.052405   -0.076194   -0.090379    0.272052
O    -1.495494    1.760766    0.052402   -0.076208    0.090375    0.272055
O     1.548660   -1.823813   -0.242192   -0.076212    0.090377    0.272055
O     1.548655    1.823815   -0.242189   -0.076199   -0.090382    0.272053
Si    0.031914   -1.278546    0.274179   -0.091495    0.000020   -0.786056
Si    0.031914    1.278534    0.274179   -0.091494    0.000016   -0.786054
Mg   -2.218947   -0.000002   -0.297611    0.103382    0.000007   -0.152501
Mg    2.146827   -0.000002    0.403999    0.103382    0.000007   -0.152501
O    -0.346695    0.000014   -1.545066    0.155973   -0.000040    1.067481
O     0.237888    0.000012    0.800387    0.155967   -0.000034    1.067465
10
* Frequency(25)  765.9514
O    -1.496224   -1.761625    0.054993   -0.076194   -0.090379    0.272052
O    -1.496219    1.761626    0.054990   -0.076208    0.090375    0.272055
O     1.547935   -1.822953   -0.239604   -0.076212    0.090377    0.272055
O     1.547930    1.822955   -0.239601   -0.076199   -0.090382    0.272053
Si    0.031043   -1.278546    0.266700   -0.091495    0.000020   -0.786056
Si    0.031043    1.278534    0.266700   -0.091494    0.000016   -0.786054
Mg   -2.217964   -0.000002   -0.299062    0.103382    0.000007   -0.152501
Mg    2.147811   -0.000002    0.402548    0.103382    0.000007   -0.152501
O    -0.345211    0.000013   -1.534910    0.155973   -0.000040    1.067481
O     0.239372    0.000011    0.810543    0.155967   -0.000034    1.067465
10
* Frequency(25)  765.9514
O    -1.499751   -1.765808    0.067584   -0.076194   -0.090379    0.272052
O    -1.499746    1.765809    0.067581   -0.076208    0.090375    0.272055
O     1.544407   -1.818770   -0.227012   -0.076212    0.090377    0.272055
O     1.544404    1.818772   -0.227010   -0.076199   -0.090382    0.272053
Si    0.026809   -1.278545    0.230320   -0.091495    0.000020   -0.786056
Si    0.026809    1.278534    0.230320   -0.091494    0.000016   -0.786054
Mg   -2.213179   -0.000002   -0.306120    0.103382    0.000007   -0.152501
Mg    2.152595   -0.000002    0.395490    0.103382    0.000007   -0.152501
O    -0.337992    0.000011   -1.485505    0.155973   -0.000040    1.067481
O     0.246590    0.000010    0.859948    0.155967   -0.000034    1.067465
10
* Frequency(25)  765.9514
O    -1.505697   -1.772861    0.088814   -0.076194   -0.090379    0.272052
O    -1.505693    1.772861    0.088811   -0.076208    0.090375    0.272055
O     1.538460   -1.811717   -0.205783   -0.076212    0.090377    0.272055
O     1.538457    1.811719   -0.205781   -0.076199   -0.090382    0.272053
Si    0.019669   -1.278544    0.168981   -0.091495    0.000020   -0.786056
Si    0.019669    1.278536    0.168981   -0.091494    0.000016   -0.786054
Mg   -2.205112   -0.000001   -0.318020    0.103382    0.000007   -0.152501
Mg    2.160663   -0.000001    0.383589    0.103382    0.000007   -0.152501
O    -0.325821    0.000008   -1.402205    0.155973   -0.000040    1.067481
O     0.258761    0.000007    0.943246    0.155967   -0.000034    1.067465
10
* Frequency(25)  765.9514
O    -1.513417   -1.782019    0.116381   -0.076194   -0.090379    0.272052
O    -1.513415    1.782019    0.116378   -0.076208    0.090375    0.272055
O     1.530738   -1.802560   -0.178216   -0.076212    0.090377    0.272055
O     1.530736    1.802561   -0.178214   -0.076199   -0.090382    0.272053
Si    0.010398   -1.278542    0.089331   -0.091495    0.000020   -0.786056
Si    0.010398    1.278537    0.089331   -0.091494    0.000016   -0.786054
Mg   -2.194636   -0.000001   -0.333473    0.103382    0.000007   -0.152501
Mg    2.171138   -0.000001    0.368137    0.103382    0.000007   -0.152501
O    -0.310017    0.000004   -1.294037    0.155973   -0.000040    1.067481
O     0.274565    0.000004    1.051412    0.155967   -0.000034    1.067465
10
* Frequency(25)  765.9514
O    -1.522076   -1.792290    0.147298   -0.076194   -0.090379    0.272052
O    -1.522076    1.792290    0.147296   -0.076208    0.090375    0.272055
O     1.522077   -1.792289   -0.147298   -0.076212    0.090377    0.272055
O     1.522077    1.792289   -0.147296   -0.076199   -0.090382    0.272053
Si   -0.000000   -1.278539   -0.000001   -0.091495    0.000020   -0.786056
Si    0.000000    1.278539   -0.000000   -0.091494    0.000016   -0.786054
Mg   -2.182887   -0.000000   -0.350804    0.103382    0.000007   -0.152501
Mg    2.182887    0.000000    0.350806    0.103382    0.000007   -0.152501
O    -0.292291   -0.000000   -1.172724    0.155973   -0.000040    1.067481
O     0.292290   -0.000000    1.172724    0.155967   -0.000034    1.067465
