10
* (null), Energy   -1000.0000000
O    -1.522076   -1.792290    0.147298    0.836811    0.449906   -0.120703
O    -1.522076    1.792290    0.147296   -0.836807    0.449903    0.120701
O     1.522077   -1.792289   -0.147298   -0.836810    0.449904    0.120702
O     1.522077    1.792289   -0.147296    0.836808    0.449903   -0.120702
Si   -0.000000   -1.278539   -0.000001   -0.000001   -0.378175    0.000001
Si    0.000000    1.278539   -0.000000   -0.000001   -0.378170    0.000001
Mg   -2.182887   -0.000000   -0.350804   -0.000001   -0.066863    0.000000
Mg    2.182887    0.000000    0.350806    0.000001   -0.066863    0.000000
O    -0.292291   -0.000000   -1.172724    0.000000   -0.134356   -0.000002
O     0.292290   -0.000000    1.172724   -0.000000   -0.134356    0.000000
10
* Frequency(26)  837.2450
O    -1.426977   -1.741160    0.133581    0.836811    0.449906   -0.120703
O    -1.617175    1.843419    0.161013   -0.836807    0.449903    0.120701
O     1.426977   -1.741159   -0.133581   -0.836810    0.449904    0.120702
O     1.617175    1.843418   -0.161013    0.836808    0.449903   -0.120702
Si   -0.000000   -1.321517   -0.000000   -0.000001   -0.378175    0.000001
Si    0.000000    1.235562   -0.000000   -0.000001   -0.378170    0.000001
Mg   -2.182887   -0.007599   -0.350804   -0.000001   -0.066863    0.000000
Mg    2.182887   -0.007598    0.350806    0.000001   -0.066863    0.000000
O    -0.292291   -0.015269   -1.172724    0.000000   -0.134356   -0.000002
O     0.292290   -0.015269    1.172724   -0.000000   -0.134356    0.000000
10
* Frequency(26)  837.2450
O    -1.342183   -1.695572    0.121350    0.836811    0.449906   -0.120703
O    -1.701968    1.889007    0.173243   -0.836807    0.449903    0.120701
O     1.342184   -1.695571   -0.121350   -0.836810    0.449904    0.120702
O     1.701969    1.889007   -0.173244    0.836808    0.449903   -0.120702
Si   -0.000000   -1.359837   -0.000000   -0.000001   -0.378175    0.000001
Si    0.000000    1.197242   -0.000000   -0.000001   -0.378170    0.000001
Mg   -2.182887   -0.014374   -0.350804   -0.000001   -0.066863    0.000000
Mg    2.182887   -0.014374    0.350806    0.000001   -0.066863    0.000000
O    -0.292291   -0.028883   -1.172724    0.000000   -0.134356   -0.000002
O     0.292290   -0.028883    1.172724   -0.000000   -0.134356    0.000000
10
* Frequency(26)  837.2450
O    -1.276884   -1.660464    0.111931    0.836811    0.449906   -0.120703
O    -1.767267    1.924115    0.182662   -0.836807    0.449903    0.120701
O     1.276884   -1.660463   -0.111931   -0.836810    0.449904    0.120702
O     1.767268    1.924114   -0.182663    0.836808    0.449903   -0.120702
Si   -0.000000   -1.389348   -0.000000   -0.000001   -0.378175    0.000001
Si    0.000000    1.167732    0.000000   -0.000001   -0.378170    0.000001
Mg   -2.182887   -0.019592   -0.350804   -0.000001   -0.066863    0.000000
Mg    2.182887   -0.019591    0.350806    0.000001   -0.066863    0.000000
O    -0.292291   -0.039368   -1.172724    0.000000   -0.134356   -0.000002
O     0.292290   -0.039368    1.172724   -0.000000   -0.134356    0.000000
10
* Frequency(26)  837.2450
O    -1.238155   -1.639641    0.106344    0.836811    0.449906   -0.120703
O    -1.805996    1.944937    0.188248   -0.836807    0.449903    0.120701
O     1.238155   -1.639641   -0.106345   -0.836810    0.449904    0.120702
O     1.805997    1.944937   -0.188249    0.836808    0.449903   -0.120702
Si   -0.000000   -1.406850   -0.000000   -0.000001   -0.378175    0.000001
Si    0.000000    1.150230    0.000000   -0.000001   -0.378170    0.000001
Mg   -2.182887   -0.022686   -0.350804   -0.000001   -0.066863    0.000000
Mg    2.182887   -0.022686    0.350806    0.000001   -0.066863    0.000000
O    -0.292291   -0.045586   -1.172724    0.000000   -0.134356   -0.000002
O     0.292290   -0.045586    1.172724   -0.000000   -0.134356    0.000000
10
* Frequency(26)  837.2450
O    -1.230193   -1.635361    0.105196    0.836811    0.449906   -0.120703
O    -1.813958    1.949218    0.189397   -0.836807    0.449903    0.120701
O     1.230193   -1.635360   -0.105197   -0.836810    0.449904    0.120702
O     1.813959    1.949217   -0.189397    0.836808    0.449903   -0.120702
Si   -0.000000   -1.410448   -0.000000   -0.000001   -0.378175    0.000001
Si    0.000000    1.146632    0.000000   -0.000001   -0.378170    0.000001
Mg   -2.182887   -0.023322   -0.350804   -0.000001   -0.066863    0.000000
Mg    2.182887   -0.023322    0.350806    0.000001   -0.066863    0.000000
O    -0.292291   -0.046864   -1.172724    0.000000   -0.134356   -0.000002
O     0.292290   -0.046864    1.172724   -0.000000   -0.134356    0.000000
10
* Frequency(26)  837.2450
O    -1.253861   -1.648086    0.108610    0.836811    0.449906   -0.120703
O    -1.790290    1.936493    0.185983   -0.836807    0.449903    0.120701
O     1.253861   -1.648085   -0.108610   -0.836810    0.449904    0.120702
O     1.790291    1.936492   -0.185983    0.836808    0.449903   -0.120702
Si   -0.000000   -1.399752   -0.000000   -0.000001   -0.378175    0.000001
Si    0.000000    1.157328    0.000000   -0.000001   -0.378170    0.000001
Mg   -2.182887   -0.021431   -0.350804   -0.000001   -0.066863    0.000000
Mg    2.182887   -0.021431    0.350806    0.000001   -0.066863    0.000000
O    -0.292291   -0.043064   -1.172724    0.000000   -0.134356   -0.000002
O     0.292290   -0.043064    1.172724   -0.000000   -0.134356    0.000000
10
* Frequency(26)  837.2450
O    -1.306595   -1.676438    0.116216    0.836811    0.449906   -0.120703
O    -1.737556    1.908141    0.178377   -0.836807    0.449903    0.120701
O     1.306595   -1.676437   -0.116217   -0.836810    0.449904    0.120702
O     1.737557    1.908141   -0.178377    0.836808    0.449903   -0.120702
Si   -0.000000   -1.375921   -0.000000   -0.000001   -0.378175    0.000001
Si    0.000000    1.181159   -0.000000   -0.000001   -0.378170    0.000001
Mg   -2.182887   -0.017218   -0.350804   -0.000001   -0.066863    0.000000
Mg    2.182887   -0.017217    0.350806    0.000001   -0.066863    0.000000
O    -0.292291   -0.034597   -1.172724    0.000000   -0.134356   -0.000002
O     0.292290   -0.034597    1.172724   -0.000000   -0.134356    0.000000
10
* Frequency(26)  837.2450
O    -1.382679   -1.717344    0.127191    0.836811    0.449906   -0.120703
O    -1.661472    1.867235    0.167402   -0.836807    0.449903    0.120701
O     1.382679   -1.717343   -0.127191   -0.836810    0.449904    0.120702
O     1.661473    1.867235   -0.167403    0.836808    0.449903   -0.120702
Si   -0.000000   -1.341536   -0.000000   -0.000001   -0.378175    0.000001
Si    0.000000    1.215543   -0.000000   -0.000001   -0.378170    0.000001
Mg   -2.182887   -0.011138   -0.350804   -0.000001   -0.066863    0.000000
Mg    2.182887   -0.011138    0.350806    0.000001   -0.066863    0.000000
O    -0.292291   -0.022382   -1.172724    0.000000   -0.134356   -0.000002
O     0.292290   -0.022382    1.172724   -0.000000   -0.134356    0.000000
10
* Frequency(26)  837.2450
O    -1.473869   -1.766372    0.140344    0.836811    0.449906   -0.120703
O    -1.570283    1.818208    0.154249   -0.836807    0.449903    0.120701
O     1.473869   -1.766371   -0.140345   -0.836810    0.449904    0.120702
O     1.570284    1.818207   -0.154250    0.836808    0.449903   -0.120702
Si   -0.000000   -1.300325   -0.000000   -0.000001   -0.378175    0.000001
Si    0.000000    1.256754   -0.000000   -0.000001   -0.378170    0.000001
Mg   -2.182887   -0.003852   -0.350804   -0.000001   -0.066863    0.000000
Mg    2.182887   -0.003852    0.350806    0.000001   -0.066863    0.000000
O    -0.292291   -0.007740   -1.172724    0.000000   -0.134356   -0.000002
O     0.292290   -0.007740    1.172724   -0.000000   -0.134356    0.000000
10
* Frequency(26)  837.2450
O    -1.570283   -1.818208    0.154251    0.836811    0.449906   -0.120703
O    -1.473869    1.766372    0.140342   -0.836807    0.449903    0.120701
O     1.570284   -1.818207   -0.154252   -0.836810    0.449904    0.120702
O     1.473870    1.766371   -0.140343    0.836808    0.449903   -0.120702
Si    0.000000   -1.256753   -0.000001   -0.000001   -0.378175    0.000001
Si    0.000000    1.300325   -0.000000   -0.000001   -0.378170    0.000001
Mg   -2.182887    0.003852   -0.350804   -0.000001   -0.066863    0.000000
Mg    2.182887    0.003852    0.350806    0.000001   -0.066863    0.000000
O    -0.292291    0.007740   -1.172724    0.000000   -0.134356   -0.000002
O     0.292290    0.007740    1.172724   -0.000000   -0.134356    0.000000
10
* Frequency(26)  837.2450
O    -1.661474   -1.867236    0.167405    0.836811    0.449906   -0.120703
O    -1.382679    1.717344    0.127189   -0.836807    0.449903    0.120701
O     1.661474   -1.867234   -0.167405   -0.836810    0.449904    0.120702
O     1.382680    1.717344   -0.127189    0.836808    0.449903   -0.120702
Si    0.000000   -1.215542   -0.000001   -0.000001   -0.378175    0.000001
Si    0.000000    1.341535   -0.000000   -0.000001   -0.378170    0.000001
Mg   -2.182887    0.011138   -0.350804   -0.000001   -0.066863    0.000000
Mg    2.182887    0.011138    0.350806    0.000001   -0.066863    0.000000
O    -0.292291    0.022381   -1.172723    0.000000   -0.134356   -0.000002
O     0.292290    0.022381    1.172724   -0.000000   -0.134356    0.000000
10
* Frequency(26)  837.2450
O    -1.737558   -1.908142    0.178379    0.836811    0.449906   -0.120703
O    -1.306595    1.676438    0.116215   -0.836807    0.449903    0.120701
O     1.737558   -1.908141   -0.178379   -0.836810    0.449904    0.120702
O     1.306596    1.676438   -0.116215    0.836808    0.449903   -0.120702
Si    0.000000   -1.181158   -0.000001   -0.000001   -0.378175    0.000001
Si    0.000000    1.375919   -0.000000   -0.000001   -0.378170    0.000001
Mg   -2.182887    0.017218   -0.350804   -0.000001   -0.066863    0.000000
Mg    2.182887    0.017218    0.350806    0.000001   -0.066863    0.000000
O    -0.292291    0.034597   -1.172723    0.000000   -0.134356   -0.000002
O     0.292290    0.034597    1.172724   -0.000000   -0.134356    0.000000
10
* Frequency(26)  837.2450
O    -1.790292   -1.936494    0.185986    0.836811    0.449906   -0.120703
O    -1.253862    1.648087    0.108609   -0.836807    0.449903    0.120701
O     1.790292   -1.936492   -0.185986   -0.836810    0.449904    0.120702
O     1.253863    1.648086   -0.108609    0.836808    0.449903   -0.120702
Si    0.000000   -1.157327   -0.000001   -0.000001   -0.378175    0.000001
Si    0.000000    1.399750   -0.000000   -0.000001   -0.378170    0.000001
Mg   -2.182887    0.021431   -0.350804   -0.000001   -0.066863    0.000000
Mg    2.182887    0.021431    0.350806    0.000001   -0.066863    0.000000
O    -0.292291    0.043064   -1.172723    0.000000   -0.134356   -0.000002
O     0.292290    0.043064    1.172724   -0.000000   -0.134356    0.000000
10
* Frequency(26)  837.2450
O    -1.813960   -1.949219    0.189400    0.836811    0.449906   -0.120703
O    -1.230194    1.635362    0.105195   -0.836807    0.449903    0.120701
O     1.813960   -1.949217   -0.189400   -0.836810    0.449904    0.120702
O     1.230194    1.635361   -0.105195    0.836808    0.449903   -0.120702
Si    0.000000   -1.146630   -0.000001   -0.000001   -0.378175    0.000001
Si    0.000000    1.410447   -0.000000   -0.000001   -0.378170    0.000001
Mg   -2.182887    0.023322   -0.350804   -0.000001   -0.066863    0.000000
Mg    2.182887    0.023322    0.350806    0.000001   -0.066863    0.000000
O    -0.292291    0.046864   -1.172723    0.000000   -0.134356   -0.000002
O     0.292290    0.046864    1.172724   -0.000000   -0.134356    0.000000
10
* Frequency(26)  837.2450
O    -1.805998   -1.944938    0.188251    0.836811    0.449906   -0.120703
O    -1.238156    1.639642    0.106343   -0.836807    0.449903    0.120701
O     1.805998   -1.944937   -0.188251   -0.836810    0.449904    0.120702
O     1.238156    1.639642   -0.106343    0.836808    0.449903   -0.120702
Si    0.000000   -1.150228   -0.000001   -0.000001   -0.378175    0.000001
Si    0.000000    1.406849   -0.000000   -0.000001   -0.378170    0.000001
Mg   -2.182887    0.022686   -0.350804   -0.000001   -0.066863    0.000000
Mg    2.182887    0.022686    0.350806    0.000001   -0.066863    0.000000
O    -0.292291    0.045585   -1.172723    0.000000   -0.134356   -0.000002
O     0.292290    0.045586    1.172724   -0.000000   -0.134356    0.000000
10
* Frequency(26)  837.2450
O    -1.767269   -1.924116    0.182665    0.836811    0.449906   -0.120703
O    -1.276885    1.660464    0.111929   -0.836807    0.449903    0.120701
O     1.767269   -1.924114   -0.182665   -0.836810    0.449904    0.120702
O     1.276885    1.660464   -0.111930    0.836808    0.449903   -0.120702
Si    0.000000   -1.167731   -0.000001   -0.000001   -0.378175    0.000001
Si    0.000000    1.389346   -0.000000   -0.000001   -0.378170    0.000001
Mg   -2.182887    0.019591   -0.350804   -0.000001   -0.066863    0.000000
Mg    2.182887    0.019592    0.350806    0.000001   -0.066863    0.000000
O    -0.292291    0.039367   -1.172723    0.000000   -0.134356   -0.000002
O     0.292290    0.039367    1.172724   -0.000000   -0.134356    0.000000
10
* Frequency(26)  837.2450
O    -1.701969   -1.889008    0.173246    0.836811    0.449906   -0.120703
O    -1.342184    1.695572    0.121348   -0.836807    0.449903    0.120701
O     1.701969   -1.889007   -0.173246   -0.836810    0.449904    0.120702
O     1.342184    1.695572   -0.121348    0.836808    0.449903   -0.120702
Si    0.000000   -1.197241   -0.000001   -0.000001   -0.378175    0.000001
Si    0.000000    1.359836   -0.000000   -0.000001   -0.378170    0.000001
Mg   -2.182887    0.014374   -0.350804   -0.000001   -0.066863    0.000000
Mg    2.182887    0.014374    0.350806    0.000001   -0.066863    0.000000
O    -0.292291    0.028883   -1.172723    0.000000   -0.134356   -0.000002
O     0.292290    0.028883    1.172724   -0.000000   -0.134356    0.000000
10
* Frequency(26)  837.2450
O    -1.617176   -1.843419    0.161015    0.836811    0.449906   -0.120703
O    -1.426977    1.741161    0.133579   -0.836807    0.449903    0.120701
O     1.617176   -1.843418   -0.161015   -0.836810    0.449904    0.120702
O     1.426978    1.741160   -0.133579    0.836808    0.449903   -0.120702
Si    0.000000   -1.235562   -0.000001   -0.000001   -0.378175    0.000001
Si    0.000000    1.321516   -0.000000   -0.000001   -0.378170    0.000001
Mg   -2.182887    0.007599   -0.350804   -0.000001   -0.066863    0.000000
Mg    2.182887    0.007599    0.350806    0.000001   -0.066863    0.000000
O    -0.292291    0.015269   -1.172724    0.000000   -0.134356   -0.000002
O     0.292290    0.015269    1.172724   -0.000000   -0.134356    0.000000
10
* Frequency(26)  837.2450
O    -1.522076   -1.792290    0.147298    0.836811    0.449906   -0.120703
O    -1.522076    1.792290    0.147296   -0.836807    0.449903    0.120701
O     1.522077   -1.792289   -0.147298   -0.836810    0.449904    0.120702
O     1.522077    1.792289   -0.147296    0.836808    0.449903   -0.120702
Si   -0.000000   -1.278539   -0.000001   -0.000001   -0.378175    0.000001
Si    0.000000    1.278539   -0.000000   -0.000001   -0.378170    0.000001
Mg   -2.182887   -0.000000   -0.350804   -0.000001   -0.066863    0.000000
Mg    2.182887    0.000000    0.350806    0.000001   -0.066863    0.000000
O    -0.292291   -0.000000   -1.172724    0.000000   -0.134356   -0.000002
O     0.292290   -0.000000    1.172724   -0.000000   -0.134356    0.000000
