10
* (null), Energy   -1000.0000000
O    -1.522076   -1.792290    0.147298    0.714338    0.240862   -0.070253
O    -1.522076    1.792290    0.147296    0.714357   -0.240870   -0.070254
O     1.522077   -1.792289   -0.147298    0.714340   -0.240863   -0.070253
O     1.522077    1.792289   -0.147296    0.714357    0.240870   -0.070254
Si   -0.000000   -1.278539   -0.000001   -0.912767    0.000001    0.027455
Si    0.000000    1.278539   -0.000000   -0.912790    0.000000    0.027456
Mg   -2.182887   -0.000000   -0.350804    0.035328    0.000001    0.022063
Mg    2.182887    0.000000    0.350806    0.035328   -0.000001    0.022063
O    -0.292291   -0.000000   -1.172724    0.120004    0.000000    0.058793
O     0.292290   -0.000000    1.172724    0.120004   -0.000000    0.058792
10
* Frequency(29) 1130.1462
O    -1.440896   -1.764917    0.139314    0.714338    0.240862   -0.070253
O    -1.440893    1.764916    0.139312    0.714357   -0.240870   -0.070254
O     1.603258   -1.819661   -0.155282    0.714340   -0.240863   -0.070253
O     1.603260    1.819663   -0.155280    0.714357    0.240870   -0.070254
Si   -0.103731   -1.278539    0.003120   -0.912767    0.000001    0.027455
Si   -0.103734    1.278539    0.003120   -0.912790    0.000000    0.027456
Mg   -2.178872    0.000000   -0.348297    0.035328    0.000001    0.022063
Mg    2.186902    0.000000    0.353313    0.035328   -0.000001    0.022063
O    -0.278653   -0.000000   -1.166042    0.120004    0.000000    0.058793
O     0.305928   -0.000000    1.179405    0.120004   -0.000000    0.058792
10
* Frequency(29) 1130.1462
O    -1.368512   -1.740511    0.132195    0.714338    0.240862   -0.070253
O    -1.368507    1.740509    0.132193    0.714357   -0.240870   -0.070254
O     1.675641   -1.844068   -0.162401    0.714340   -0.240863   -0.070253
O     1.675645    1.844070   -0.162399    0.714357    0.240870   -0.070254
Si   -0.196222   -1.278539    0.005902   -0.912767    0.000001    0.027455
Si   -0.196226    1.278539    0.005902   -0.912790    0.000000    0.027456
Mg   -2.175293    0.000000   -0.346061    0.035328    0.000001    0.022063
Mg    2.190482   -0.000000    0.355549    0.035328   -0.000001    0.022063
O    -0.266493   -0.000000   -1.160085    0.120004    0.000000    0.058793
O     0.318088   -0.000000    1.185362    0.120004   -0.000000    0.058792
10
* Frequency(29) 1130.1462
O    -1.312770   -1.721715    0.126713    0.714338    0.240862   -0.070253
O    -1.312763    1.721713    0.126711    0.714357   -0.240870   -0.070254
O     1.731384   -1.862863   -0.167883    0.714340   -0.240863   -0.070253
O     1.731389    1.862866   -0.167881    0.714357    0.240870   -0.070254
Si   -0.267448   -1.278539    0.008044   -0.912767    0.000001    0.027455
Si   -0.267455    1.278539    0.008045   -0.912790    0.000000    0.027456
Mg   -2.172536    0.000000   -0.344340    0.035328    0.000001    0.022063
Mg    2.193238   -0.000000    0.357270    0.035328   -0.000001    0.022063
O    -0.257129   -0.000000   -1.155497    0.120004    0.000000    0.058793
O     0.327452   -0.000000    1.189950    0.120004   -0.000000    0.058792
10
* Frequency(29) 1130.1462
O    -1.279709   -1.710568    0.123462    0.714338    0.240862   -0.070253
O    -1.279701    1.710565    0.123459    0.714357   -0.240870   -0.070254
O     1.764445   -1.874011   -0.171134    0.714340   -0.240863   -0.070253
O     1.764451    1.874014   -0.171133    0.714357    0.240870   -0.070254
Si   -0.309693   -1.278539    0.009315   -0.912767    0.000001    0.027455
Si   -0.309700    1.278539    0.009315   -0.912790    0.000000    0.027456
Mg   -2.170901    0.000000   -0.343318    0.035328    0.000001    0.022063
Mg    2.194873   -0.000000    0.358291    0.035328   -0.000001    0.022063
O    -0.251575   -0.000000   -1.152776    0.120004    0.000000    0.058793
O     0.333006   -0.000000    1.192671    0.120004   -0.000000    0.058792
10
* Frequency(29) 1130.1462
O    -1.272912   -1.708276    0.122793    0.714338    0.240862   -0.070253
O    -1.272905    1.708273    0.122791    0.714357   -0.240870   -0.070254
O     1.771242   -1.876303   -0.171803    0.714340   -0.240863   -0.070253
O     1.771247    1.876306   -0.171801    0.714357    0.240870   -0.070254
Si   -0.318377   -1.278539    0.009576   -0.912767    0.000001    0.027455
Si   -0.318385    1.278539    0.009577   -0.912790    0.000000    0.027456
Mg   -2.170565    0.000000   -0.343108    0.035328    0.000001    0.022063
Mg    2.195210   -0.000000    0.358501    0.035328   -0.000001    0.022063
O    -0.250433   -0.000000   -1.152217    0.120004    0.000000    0.058793
O     0.334148   -0.000000    1.193231    0.120004   -0.000000    0.058792
10
* Frequency(29) 1130.1462
O    -1.293116   -1.715088    0.124780    0.714338    0.240862   -0.070253
O    -1.293110    1.715086    0.124778    0.714357   -0.240870   -0.070254
O     1.751037   -1.869490   -0.169816    0.714340   -0.240863   -0.070253
O     1.751043    1.869493   -0.169814    0.714357    0.240870   -0.070254
Si   -0.292561   -1.278539    0.008799   -0.912767    0.000001    0.027455
Si   -0.292568    1.278539    0.008800   -0.912790    0.000000    0.027456
Mg   -2.171564    0.000000   -0.343733    0.035328    0.000001    0.022063
Mg    2.194210   -0.000000    0.357877    0.035328   -0.000001    0.022063
O    -0.253827   -0.000000   -1.153879    0.120004    0.000000    0.058793
O     0.330754   -0.000000    1.191568    0.120004   -0.000000    0.058792
10
* Frequency(29) 1130.1462
O    -1.338132   -1.730267    0.129208    0.714338    0.240862   -0.070253
O    -1.338126    1.730265    0.129205    0.714357   -0.240870   -0.070254
O     1.706021   -1.854312   -0.165388    0.714340   -0.240863   -0.070253
O     1.706026    1.854314   -0.165387    0.714357    0.240870   -0.070254
Si   -0.235041   -1.278539    0.007069   -0.912767    0.000001    0.027455
Si   -0.235046    1.278539    0.007070   -0.912790    0.000000    0.027456
Mg   -2.173790    0.000000   -0.345123    0.035328    0.000001    0.022063
Mg    2.191984   -0.000000    0.356487    0.035328   -0.000001    0.022063
O    -0.261390   -0.000000   -1.157584    0.120004    0.000000    0.058793
O     0.323192   -0.000000    1.187863    0.120004   -0.000000    0.058792
10
* Frequency(29) 1130.1462
O    -1.403081   -1.752167    0.135595    0.714338    0.240862   -0.070253
O    -1.403077    1.752165    0.135593    0.714357   -0.240870   -0.070254
O     1.641072   -1.832412   -0.159001    0.714340   -0.240863   -0.070253
O     1.641075    1.832414   -0.158999    0.714357    0.240870   -0.070254
Si   -0.152050   -1.278539    0.004573   -0.912767    0.000001    0.027455
Si   -0.152054    1.278539    0.004573   -0.912790    0.000000    0.027456
Mg   -2.177002    0.000000   -0.347129    0.035328    0.000001    0.022063
Mg    2.188772   -0.000000    0.354481    0.035328   -0.000001    0.022063
O    -0.272301   -0.000000   -1.162930    0.120004    0.000000    0.058793
O     0.312281   -0.000000    1.182517    0.120004   -0.000000    0.058792
10
* Frequency(29) 1130.1462
O    -1.480925   -1.778414    0.143251    0.714338    0.240862   -0.070253
O    -1.480923    1.778414    0.143248    0.714357   -0.240870   -0.070254
O     1.563228   -1.806164   -0.151345    0.714340   -0.240863   -0.070253
O     1.563229    1.806165   -0.151343    0.714357    0.240870   -0.070254
Si   -0.052583   -1.278539    0.001581   -0.912767    0.000001    0.027455
Si   -0.052584    1.278539    0.001582   -0.912790    0.000000    0.027456
Mg   -2.180852    0.000000   -0.349533    0.035328    0.000001    0.022063
Mg    2.184922    0.000000    0.352077    0.035328   -0.000001    0.022063
O    -0.285378   -0.000000   -1.169337    0.120004    0.000000    0.058793
O     0.299203   -0.000000    1.176111    0.120004   -0.000000    0.058792
10
* Frequency(29) 1130.1462
O    -1.563228   -1.806165    0.151345    0.714338    0.240862   -0.070253
O    -1.563229    1.806166    0.151343    0.714357   -0.240870   -0.070254
O     1.480925   -1.778413   -0.143251    0.714340   -0.240863   -0.070253
O     1.480924    1.778413   -0.143249    0.714357    0.240870   -0.070254
Si    0.052583   -1.278539   -0.001582   -0.912767    0.000001    0.027455
Si    0.052584    1.278539   -0.001582   -0.912790    0.000000    0.027456
Mg   -2.184922   -0.000000   -0.352075    0.035328    0.000001    0.022063
Mg    2.180852    0.000000    0.349535    0.035328   -0.000001    0.022063
O    -0.299204   -0.000000   -1.176111    0.120004    0.000000    0.058793
O     0.285377   -0.000000    1.169337    0.120004   -0.000000    0.058792
10
* Frequency(29) 1130.1462
O    -1.641072   -1.832413    0.159001    0.714338    0.240862   -0.070253
O    -1.641075    1.832414    0.158999    0.714357   -0.240870   -0.070254
O     1.403081   -1.752165   -0.135595    0.714340   -0.240863   -0.070253
O     1.403078    1.752165   -0.135593    0.714357    0.240870   -0.070254
Si    0.152050   -1.278539   -0.004574   -0.912767    0.000001    0.027455
Si    0.152054    1.278539   -0.004574   -0.912790    0.000000    0.027456
Mg   -2.188772   -0.000000   -0.354480    0.035328    0.000001    0.022063
Mg    2.177002    0.000000    0.347130    0.035328   -0.000001    0.022063
O    -0.312282   -0.000000   -1.182518    0.120004    0.000000    0.058793
O     0.272300   -0.000000    1.162930    0.120004   -0.000000    0.058792
10
* Frequency(29) 1130.1462
O    -1.706021   -1.854313    0.165388    0.714338    0.240862   -0.070253
O    -1.706025    1.854315    0.165386    0.714357   -0.240870   -0.070254
O     1.338132   -1.730266   -0.129208    0.714340   -0.240863   -0.070253
O     1.338127    1.730265   -0.129205    0.714357    0.240870   -0.070254
Si    0.235040   -1.278539   -0.007070   -0.912767    0.000001    0.027455
Si    0.235047    1.278539   -0.007070   -0.912790    0.000000    0.027456
Mg   -2.191984   -0.000000   -0.356486    0.035328    0.000001    0.022063
Mg    2.173790    0.000000    0.345124    0.035328   -0.000001    0.022063
O    -0.323193   -0.000000   -1.187863    0.120004    0.000000    0.058793
O     0.261389   -0.000000    1.157585    0.120004   -0.000000    0.058792
10
* Frequency(29) 1130.1462
O    -1.751036   -1.869491    0.169815    0.714338    0.240862   -0.070253
O    -1.751042    1.869494    0.169814    0.714357   -0.240870   -0.070254
O     1.293116   -1.715087   -0.124781    0.714340   -0.240863   -0.070253
O     1.293111    1.715086   -0.124778    0.714357    0.240870   -0.070254
Si    0.292561   -1.278539   -0.008800   -0.912767    0.000001    0.027455
Si    0.292568    1.278539   -0.008800   -0.912790    0.000000    0.027456
Mg   -2.194210   -0.000000   -0.357876    0.035328    0.000001    0.022063
Mg    2.171564    0.000001    0.343734    0.035328   -0.000001    0.022063
O    -0.330755   -0.000000   -1.191568    0.120004    0.000000    0.058793
O     0.253826   -0.000000    1.153880    0.120004   -0.000000    0.058792
10
* Frequency(29) 1130.1462
O    -1.771241   -1.876304    0.171802    0.714338    0.240862   -0.070253
O    -1.771247    1.876306    0.171801    0.714357   -0.240870   -0.070254
O     1.272911   -1.708275   -0.122794    0.714340   -0.240863   -0.070253
O     1.272906    1.708273   -0.122791    0.714357    0.240870   -0.070254
Si    0.318377   -1.278539   -0.009577   -0.912767    0.000001    0.027455
Si    0.318385    1.278539   -0.009577   -0.912790    0.000000    0.027456
Mg   -2.195210   -0.000000   -0.358500    0.035328    0.000001    0.022063
Mg    2.170565    0.000001    0.343110    0.035328   -0.000001    0.022063
O    -0.334149   -0.000000   -1.193231    0.120004    0.000000    0.058793
O     0.250432   -0.000000    1.152217    0.120004   -0.000000    0.058792
10
* Frequency(29) 1130.1462
O    -1.764444   -1.874012    0.171134    0.714338    0.240862   -0.070253
O    -1.764450    1.874015    0.171132    0.714357   -0.240870   -0.070254
O     1.279708   -1.710566   -0.123462    0.714340   -0.240863   -0.070253
O     1.279703    1.710565   -0.123460    0.714357    0.240870   -0.070254
Si    0.309693   -1.278539   -0.009316   -0.912767    0.000001    0.027455
Si    0.309701    1.278539   -0.009316   -0.912790    0.000000    0.027456
Mg   -2.194873   -0.000000   -0.358290    0.035328    0.000001    0.022063
Mg    2.170901    0.000001    0.343320    0.035328   -0.000001    0.022063
O    -0.333007   -0.000000   -1.192672    0.120004    0.000000    0.058793
O     0.251574   -0.000000    1.152776    0.120004   -0.000000    0.058792
10
* Frequency(29) 1130.1462
O    -1.731383   -1.862864    0.167883    0.714338    0.240862   -0.070253
O    -1.731388    1.862867    0.167881    0.714357   -0.240870   -0.070254
O     1.312769   -1.721714   -0.126713    0.714340   -0.240863   -0.070253
O     1.312764    1.721712   -0.126711    0.714357    0.240870   -0.070254
Si    0.267448   -1.278539   -0.008045   -0.912767    0.000001    0.027455
Si    0.267455    1.278539   -0.008045   -0.912790    0.000000    0.027456
Mg   -2.193238   -0.000000   -0.357269    0.035328    0.000001    0.022063
Mg    2.172536    0.000001    0.344341    0.035328   -0.000001    0.022063
O    -0.327453   -0.000000   -1.189951    0.120004    0.000000    0.058793
O     0.257128   -0.000000    1.155497    0.120004   -0.000000    0.058792
10
* Frequency(29) 1130.1462
O    -1.675641   -1.844069    0.162400    0.714338    0.240862   -0.070253
O    -1.675644    1.844071    0.162399    0.714357   -0.240870   -0.070254
O     1.368512   -1.740509   -0.132195    0.714340   -0.240863   -0.070253
O     1.368508    1.740508   -0.132193    0.714357    0.240870   -0.070254
Si    0.196221   -1.278539   -0.005903   -0.912767    0.000001    0.027455
Si    0.196227    1.278539   -0.005902   -0.912790    0.000000    0.027456
Mg   -2.190482   -0.000000   -0.355547    0.035328    0.000001    0.022063
Mg    2.175293    0.000000    0.346063    0.035328   -0.000001    0.022063
O    -0.318089   -0.000000   -1.185363    0.120004    0.000000    0.058793
O     0.266492   -0.000000    1.160085    0.120004   -0.000000    0.058792
10
* Frequency(29) 1130.1462
O    -1.603257   -1.819662    0.155282    0.714338    0.240862   -0.070253
O    -1.603259    1.819663    0.155280    0.714357   -0.240870   -0.070254
O     1.440895   -1.764916   -0.139314    0.714340   -0.240863   -0.070253
O     1.440894    1.764916   -0.139312    0.714357    0.240870   -0.070254
Si    0.103731   -1.278539   -0.003121   -0.912767    0.000001    0.027455
Si    0.103734    1.278539   -0.003120   -0.912790    0.000000    0.027456
Mg   -2.186902   -0.000000   -0.353312    0.035328    0.000001    0.022063
Mg    2.178872    0.000000    0.348298    0.035328   -0.000001    0.022063
O    -0.305929   -0.000000   -1.179405    0.120004    0.000000    0.058793
O     0.278652   -0.000000    1.166042    0.120004   -0.000000    0.058792
10
* Frequency(29) 1130.1462
O    -1.522076   -1.792290    0.147298    0.714338    0.240862   -0.070253
O    -1.522076    1.792290    0.147296    0.714357   -0.240870   -0.070254
O     1.522077   -1.792289   -0.147298    0.714340   -0.240863   -0.070253
O     1.522077    1.792289   -0.147296    0.714357    0.240870   -0.070254
Si   -0.000000   -1.278539   -0.000001   -0.912767    0.000001    0.027455
Si    0.000000    1.278539   -0.000000   -0.912790    0.000000    0.027456
Mg   -2.182887   -0.000000   -0.350804    0.035328    0.000001    0.022063
Mg    2.182887    0.000000    0.350806    0.035328   -0.000001    0.022063
O    -0.292291   -0.000000   -1.172724    0.120004    0.000000    0.058793
O     0.292290   -0.000000    1.172724    0.120004   -0.000000    0.058792
