10
* (null), Energy   -1000.0000000
O    -1.522076   -1.792290    0.147298    0.099327   -0.183644    0.662933
O    -1.522076    1.792290    0.147296    0.099326    0.183643    0.662928
O     1.522077   -1.792289   -0.147298    0.099325    0.183653    0.662925
O     1.522077    1.792289   -0.147296    0.099326   -0.183652    0.662921
Si   -0.000000   -1.278539   -0.000001   -0.092132    0.000003   -0.172009
Si    0.000000    1.278539   -0.000000   -0.092130   -0.000002   -0.172002
Mg   -2.182887   -0.000000   -0.350804    0.388862   -0.000001   -0.269190
Mg    2.182887    0.000000    0.350806    0.388855   -0.000001   -0.269191
O    -0.292291   -0.000000   -1.172724   -0.627645   -0.000001   -0.614961
O     0.292290   -0.000000    1.172724   -0.627663    0.000002   -0.614955
10
* Frequency(13)  385.3580
O    -1.510788   -1.813160    0.222637    0.099327   -0.183644    0.662933
O    -1.510788    1.813160    0.222634    0.099326    0.183643    0.662928
O     1.533364   -1.771418   -0.071960    0.099325    0.183653    0.662925
O     1.533365    1.771418   -0.071959    0.099326   -0.183652    0.662921
Si   -0.010470   -1.278539   -0.019548   -0.092132    0.000003   -0.172009
Si   -0.010470    1.278539   -0.019547   -0.092130   -0.000002   -0.172002
Mg   -2.138695   -0.000000   -0.381396    0.388862   -0.000001   -0.269190
Mg    2.227078    0.000000    0.320213    0.388855   -0.000001   -0.269191
O    -0.363620   -0.000000   -1.242611   -0.627645   -0.000001   -0.614961
O     0.220959   -0.000000    1.102837   -0.627663    0.000002   -0.614955
10
* Frequency(13)  385.3580
O    -1.500724   -1.831768    0.289811    0.099327   -0.183644    0.662933
O    -1.500723    1.831768    0.289808    0.099326    0.183643    0.662928
O     1.543429   -1.752808   -0.004786    0.099325    0.183653    0.662925
O     1.543429    1.752809   -0.004785    0.099326   -0.183652    0.662921
Si   -0.019806   -1.278539   -0.036978   -0.092132    0.000003   -0.172009
Si   -0.019805    1.278539   -0.036976   -0.092130   -0.000002   -0.172002
Mg   -2.099292   -0.000000   -0.408673    0.388862   -0.000001   -0.269190
Mg    2.266481    0.000000    0.292936    0.388855   -0.000001   -0.269191
O    -0.427219   -0.000001   -1.304925   -0.627645   -0.000001   -0.614961
O     0.157358    0.000000    1.040524   -0.627663    0.000002   -0.614955
10
* Frequency(13)  385.3580
O    -1.492973   -1.846099    0.341543    0.099327   -0.183644    0.662933
O    -1.492973    1.846099    0.341539    0.099326    0.183643    0.662928
O     1.551180   -1.738477    0.046944    0.099325    0.183653    0.662925
O     1.551180    1.738478    0.046945    0.099326   -0.183652    0.662921
Si   -0.026996   -1.278538   -0.050401   -0.092132    0.000003   -0.172009
Si   -0.026995    1.278539   -0.050398   -0.092130   -0.000002   -0.172002
Mg   -2.068947   -0.000000   -0.429679    0.388862   -0.000001   -0.269190
Mg    2.296825   -0.000000    0.271930    0.388855   -0.000001   -0.269191
O    -0.476196   -0.000001   -1.352913   -0.627645   -0.000001   -0.614961
O     0.108379    0.000000    0.992537   -0.627663    0.000002   -0.614955
10
* Frequency(13)  385.3580
O    -1.488376   -1.854598    0.372224    0.099327   -0.183644    0.662933
O    -1.488376    1.854598    0.372221    0.099326    0.183643    0.662928
O     1.555777   -1.729977    0.077626    0.099325    0.183653    0.662925
O     1.555777    1.729978    0.077627    0.099326   -0.183652    0.662921
Si   -0.031260   -1.278538   -0.058362   -0.092132    0.000003   -0.172009
Si   -0.031259    1.278539   -0.058359   -0.092130   -0.000002   -0.172002
Mg   -2.050950   -0.000000   -0.442138    0.388862   -0.000001   -0.269190
Mg    2.314822   -0.000000    0.259472    0.388855   -0.000001   -0.269191
O    -0.505245   -0.000001   -1.381374   -0.627645   -0.000001   -0.614961
O     0.079330    0.000000    0.964076   -0.627663    0.000002   -0.614955
10
* Frequency(13)  385.3580
O    -1.487431   -1.856346    0.378532    0.099327   -0.183644    0.662933
O    -1.487431    1.856345    0.378528    0.099326    0.183643    0.662928
O     1.556722   -1.728230    0.083933    0.099325    0.183653    0.662925
O     1.556722    1.728230    0.083934    0.099326   -0.183652    0.662921
Si   -0.032136   -1.278538   -0.059998   -0.092132    0.000003   -0.172009
Si   -0.032135    1.278539   -0.059995   -0.092130   -0.000002   -0.172002
Mg   -2.047250   -0.000000   -0.444699    0.388862   -0.000001   -0.269190
Mg    2.318522   -0.000000    0.256911    0.388855   -0.000001   -0.269191
O    -0.511217   -0.000001   -1.387225   -0.627645   -0.000001   -0.614961
O     0.073358    0.000000    0.958225   -0.627663    0.000002   -0.614955
10
* Frequency(13)  385.3580
O    -1.490240   -1.851151    0.359782    0.099327   -0.183644    0.662933
O    -1.490240    1.851151    0.359778    0.099326    0.183643    0.662928
O     1.553912   -1.733424    0.065183    0.099325    0.183653    0.662925
O     1.553913    1.733425    0.065184    0.099326   -0.183652    0.662921
Si   -0.029530   -1.278538   -0.055133   -0.092132    0.000003   -0.172009
Si   -0.029529    1.278539   -0.055130   -0.092130   -0.000002   -0.172002
Mg   -2.058249   -0.000000   -0.437085    0.388862   -0.000001   -0.269190
Mg    2.307523   -0.000000    0.264524    0.388855   -0.000001   -0.269191
O    -0.493464   -0.000001   -1.369832   -0.627645   -0.000001   -0.614961
O     0.091111    0.000000    0.975618   -0.627663    0.000002   -0.614955
10
* Frequency(13)  385.3580
O    -1.496499   -1.839579    0.318005    0.099327   -0.183644    0.662933
O    -1.496499    1.839578    0.318002    0.099326    0.183643    0.662928
O     1.547653   -1.744997    0.023407    0.099325    0.183653    0.662925
O     1.547653    1.744998    0.023408    0.099326   -0.183652    0.662921
Si   -0.023724   -1.278538   -0.044293   -0.092132    0.000003   -0.172009
Si   -0.023724    1.278539   -0.044291   -0.092130   -0.000002   -0.172002
Mg   -2.082754   -0.000000   -0.420121    0.388862   -0.000001   -0.269190
Mg    2.283019    0.000000    0.281488    0.388855   -0.000001   -0.269191
O    -0.453912   -0.000001   -1.331078   -0.627645   -0.000001   -0.614961
O     0.130665    0.000000    1.014371   -0.627663    0.000002   -0.614955
10
* Frequency(13)  385.3580
O    -1.505530   -1.822881    0.257730    0.099327   -0.183644    0.662933
O    -1.505530    1.822881    0.257727    0.099326    0.183643    0.662928
O     1.538622   -1.761696   -0.036867    0.099325    0.183653    0.662925
O     1.538622    1.761696   -0.036866    0.099326   -0.183652    0.662921
Si   -0.015348   -1.278539   -0.028654   -0.092132    0.000003   -0.172009
Si   -0.015347    1.278539   -0.028653   -0.092130   -0.000002   -0.172002
Mg   -2.118110   -0.000000   -0.395646    0.388862   -0.000001   -0.269190
Mg    2.247663    0.000000    0.305963    0.388855   -0.000001   -0.269191
O    -0.396845   -0.000001   -1.275165   -0.627645   -0.000001   -0.614961
O     0.187733    0.000000    1.070284   -0.627663    0.000002   -0.614955
10
* Frequency(13)  385.3580
O    -1.516354   -1.802869    0.185488    0.099327   -0.183644    0.662933
O    -1.516354    1.802869    0.185486    0.099326    0.183643    0.662928
O     1.527798   -1.781709   -0.109108    0.099325    0.183653    0.662925
O     1.527799    1.781709   -0.109106    0.099326   -0.183652    0.662921
Si   -0.005308   -1.278539   -0.009910   -0.092132    0.000003   -0.172009
Si   -0.005307    1.278539   -0.009909   -0.092130   -0.000002   -0.172002
Mg   -2.160486   -0.000000   -0.366312    0.388862   -0.000001   -0.269190
Mg    2.205288    0.000000    0.335298    0.388855   -0.000001   -0.269191
O    -0.328449   -0.000000   -1.208151   -0.627645   -0.000001   -0.614961
O     0.256132   -0.000000    1.137297   -0.627663    0.000002   -0.614955
10
* Frequency(13)  385.3580
O    -1.527798   -1.781710    0.109108    0.099327   -0.183644    0.662933
O    -1.527798    1.781710    0.109106    0.099326    0.183643    0.662928
O     1.516355   -1.802869   -0.185488    0.099325    0.183653    0.662925
O     1.516355    1.802869   -0.185486    0.099326   -0.183652    0.662921
Si    0.005308   -1.278539    0.009909   -0.092132    0.000003   -0.172009
Si    0.005308    1.278539    0.009909   -0.092130   -0.000002   -0.172002
Mg   -2.205289    0.000000   -0.335297    0.388862   -0.000001   -0.269190
Mg    2.160486    0.000000    0.366313    0.388855   -0.000001   -0.269191
O    -0.256134   -0.000000   -1.137297   -0.627645   -0.000001   -0.614961
O     0.328449   -0.000000    1.208150   -0.627663    0.000002   -0.614955
10
* Frequency(13)  385.3580
O    -1.538622   -1.761698    0.036866    0.099327   -0.183644    0.662933
O    -1.538622    1.761698    0.036864    0.099326    0.183643    0.662928
O     1.505531   -1.822882   -0.257729    0.099325    0.183653    0.662925
O     1.505531    1.822882   -0.257727    0.099326   -0.183652    0.662921
Si    0.015347   -1.278540    0.028653   -0.092132    0.000003   -0.172009
Si    0.015347    1.278540    0.028652   -0.092130   -0.000002   -0.172002
Mg   -2.247664    0.000000   -0.305962    0.388862   -0.000001   -0.269190
Mg    2.118111    0.000000    0.395648    0.388855   -0.000001   -0.269191
O    -0.187737   -0.000000   -1.070282   -0.627645   -0.000001   -0.614961
O     0.396847   -0.000001    1.275164   -0.627663    0.000002   -0.614955
10
* Frequency(13)  385.3580
O    -1.547653   -1.745001   -0.023409    0.099327   -0.183644    0.662933
O    -1.547653    1.745001   -0.023411    0.099326    0.183643    0.662928
O     1.496500   -1.839580   -0.318003    0.099325    0.183653    0.662925
O     1.496500    1.839580   -0.318001    0.099326   -0.183652    0.662921
Si    0.023724   -1.278540    0.044292   -0.092132    0.000003   -0.172009
Si    0.023724    1.278540    0.044291   -0.092130   -0.000002   -0.172002
Mg   -2.283020    0.000000   -0.281487    0.388862   -0.000001   -0.269190
Mg    2.082756    0.000000    0.420123    0.388855   -0.000001   -0.269191
O    -0.130671    0.000000   -1.014369   -0.627645   -0.000001   -0.614961
O     0.453916   -0.000001    1.331077   -0.627663    0.000002   -0.614955
10
* Frequency(13)  385.3580
O    -1.553913   -1.733428   -0.065186    0.099327   -0.183644    0.662933
O    -1.553912    1.733428   -0.065187    0.099326    0.183643    0.662928
O     1.490241   -1.851153   -0.359779    0.099325    0.183653    0.662925
O     1.490241    1.851154   -0.359776    0.099326   -0.183652    0.662921
Si    0.029530   -1.278540    0.055132   -0.092132    0.000003   -0.172009
Si    0.029530    1.278540    0.055130   -0.092130   -0.000002   -0.172002
Mg   -2.307525    0.000000   -0.264523    0.388862   -0.000001   -0.269190
Mg    2.058251    0.000000    0.437087    0.388855   -0.000001   -0.269191
O    -0.091118    0.000000   -0.975616   -0.627645   -0.000001   -0.614961
O     0.493469   -0.000001    1.369829   -0.627663    0.000002   -0.614955
10
* Frequency(13)  385.3580
O    -1.556722   -1.728234   -0.083936    0.099327   -0.183644    0.662933
O    -1.556721    1.728234   -0.083937    0.099326    0.183643    0.662928
O     1.487431   -1.856348   -0.378529    0.099325    0.183653    0.662925
O     1.487431    1.856348   -0.378526    0.099326   -0.183652    0.662921
Si    0.032136   -1.278540    0.059997   -0.092132    0.000003   -0.172009
Si    0.032136    1.278540    0.059995   -0.092130   -0.000002   -0.172002
Mg   -2.318524    0.000000   -0.256910    0.388862   -0.000001   -0.269190
Mg    2.047253    0.000000    0.444701    0.388855   -0.000001   -0.269191
O    -0.073366    0.000000   -0.958222   -0.627645   -0.000001   -0.614961
O     0.511222   -0.000001    1.387223   -0.627663    0.000002   -0.614955
10
* Frequency(13)  385.3580
O    -1.555777   -1.729981   -0.077629    0.099327   -0.183644    0.662933
O    -1.555776    1.729981   -0.077629    0.099326    0.183643    0.662928
O     1.488376   -1.854600   -0.372222    0.099325    0.183653    0.662925
O     1.488376    1.854601   -0.372219    0.099326   -0.183652    0.662921
Si    0.031259   -1.278540    0.058360   -0.092132    0.000003   -0.172009
Si    0.031259    1.278540    0.058358   -0.092130   -0.000002   -0.172002
Mg   -2.314824    0.000000   -0.259471    0.388862   -0.000001   -0.269190
Mg    2.050952    0.000000    0.442139    0.388855   -0.000001   -0.269191
O    -0.079337    0.000000   -0.964073   -0.627645   -0.000001   -0.614961
O     0.505250   -0.000001    1.381372   -0.627663    0.000002   -0.614955
10
* Frequency(13)  385.3580
O    -1.551180   -1.738481   -0.046947    0.099327   -0.183644    0.662933
O    -1.551179    1.738481   -0.046948    0.099326    0.183643    0.662928
O     1.492973   -1.846100   -0.341541    0.099325    0.183653    0.662925
O     1.492973    1.846101   -0.341538    0.099326   -0.183652    0.662921
Si    0.026995   -1.278540    0.050400   -0.092132    0.000003   -0.172009
Si    0.026995    1.278540    0.050398   -0.092130   -0.000002   -0.172002
Mg   -2.296827    0.000000   -0.271929    0.388862   -0.000001   -0.269190
Mg    2.068949    0.000000    0.429681    0.388855   -0.000001   -0.269191
O    -0.108386    0.000000   -0.992535   -0.627645   -0.000001   -0.614961
O     0.476201   -0.000001    1.352910   -0.627663    0.000002   -0.614955
10
* Frequency(13)  385.3580
O    -1.543429   -1.752811    0.004784    0.099327   -0.183644    0.662933
O    -1.543428    1.752811    0.004783    0.099326    0.183643    0.662928
O     1.500724   -1.831769   -0.289810    0.099325    0.183653    0.662925
O     1.500724    1.831770   -0.289807    0.099326   -0.183652    0.662921
Si    0.019806   -1.278540    0.036977   -0.092132    0.000003   -0.172009
Si    0.019806    1.278540    0.036976   -0.092130   -0.000002   -0.172002
Mg   -2.266482    0.000000   -0.292935    0.388862   -0.000001   -0.269190
Mg    2.099293    0.000000    0.408675    0.388855   -0.000001   -0.269191
O    -0.157364    0.000000   -1.040523   -0.627645   -0.000001   -0.614961
O     0.427222   -0.000001    1.304923   -0.627663    0.000002   -0.614955
10
* Frequency(13)  385.3580
O    -1.533364   -1.771420    0.071959    0.099327   -0.183644    0.662933
O    -1.533364    1.771420    0.071957    0.099326    0.183643    0.662928
O     1.510789   -1.813160   -0.222636    0.099325    0.183653    0.662925
O     1.510789    1.813160   -0.222634    0.099326   -0.183652    0.662921
Si    0.010470   -1.278540    0.019547   -0.092132    0.000003   -0.172009
Si    0.010470    1.278539    0.019547   -0.092130   -0.000002   -0.172002
Mg   -2.227079    0.000000   -0.320212    0.388862   -0.000001   -0.269190
Mg    2.138696    0.000000    0.381398    0.388855   -0.000001   -0.269191
O    -0.220963   -0.000000   -1.102837   -0.627645   -0.000001   -0.614961
O     0.363621   -0.000000    1.242610   -0.627663    0.000002   -0.614955
10
* Frequency(13)  385.3580
O    -1.522076   -1.792290    0.147298    0.099327   -0.183644    0.662933
O    -1.522076    1.792290    0.147296    0.099326    0.183643    0.662928
O     1.522077   -1.792289   -0.147298    0.099325    0.183653    0.662925
O     1.522077    1.792289   -0.147296    0.099326   -0.183652    0.662921
Si   -0.000000   -1.278539   -0.000001   -0.092132    0.000003   -0.172009
Si    0.000000    1.278539   -0.000000   -0.092130   -0.000002   -0.172002
Mg   -2.182887   -0.000000   -0.350804    0.388862   -0.000001   -0.269190
Mg    2.182887    0.000000    0.350806    0.388855   -0.000001   -0.269191
O    -0.292291   -0.000000   -1.172724   -0.627645   -0.000001   -0.614961
O     0.292290   -0.000000    1.172724   -0.627663    0.000002   -0.614955
