10
* (null), Energy   -1000.0000000
O    -1.522076   -1.792290    0.147298    0.000000    0.000000    0.000000
O    -1.522076    1.792290    0.147296    0.000000    0.000000    0.000000
O     1.522077   -1.792289   -0.147298    0.000000    0.000000    0.000000
O     1.522077    1.792289   -0.147296    0.000000    0.000000    0.000000
Si   -0.000000   -1.278539   -0.000001    0.000000    0.000000    0.000000
Si    0.000000    1.278539   -0.000000    0.000000    0.000000    0.000000
Mg   -2.182887   -0.000000   -0.350804    0.000000    0.000000    0.000000
Mg    2.182887    0.000000    0.350806    0.000000    0.000000    0.000000
O    -0.292291   -0.000000   -1.172724    0.000000    0.000000    0.000000
O     0.292290   -0.000000    1.172724    0.000000    0.000000    0.000000
10
* Frequency(2)    0.0000
O    -1.522076   -1.792290    0.147298    0.000000    0.000000    0.000000
O    -1.522076    1.792290    0.147296    0.000000    0.000000    0.000000
O     1.522077   -1.792289   -0.147298    0.000000    0.000000    0.000000
O     1.522077    1.792289   -0.147296    0.000000    0.000000    0.000000
Si   -0.000000   -1.278539   -0.000001    0.000000    0.000000    0.000000
Si    0.000000    1.278539   -0.000000    0.000000    0.000000    0.000000
Mg   -2.182887   -0.000000   -0.350804    0.000000    0.000000    0.000000
Mg    2.182887    0.000000    0.350806    0.000000    0.000000    0.000000
O    -0.292291   -0.000000   -1.172724    0.000000    0.000000    0.000000
O     0.292290   -0.000000    1.172724    0.000000    0.000000    0.000000
10
* Frequency(2)    0.0000
O    -1.522076   -1.792290    0.147298    0.000000    0.000000    0.000000
O    -1.522076    1.792290    0.147296    0.000000    0.000000    0.000000
O     1.522077   -1.792289   -0.147298    0.000000    0.000000    0.000000
O     1.522077    1.792289   -0.147296    0.000000    0.000000    0.000000
Si   -0.000000   -1.278539   -0.000001    0.000000    0.000000    0.000000
Si    0.000000    1.278539   -0.000000    0.000000    0.000000    0.000000
Mg   -2.182887   -0.000000   -0.350804    0.000000    0.000000    0.000000
Mg    2.182887    0.000000    0.350806    0.000000    0.000000    0.000000
O    -0.292291   -0.000000   -1.172724    0.000000    0.000000    0.000000
O     0.292290   -0.000000    1.172724    0.000000    0.000000    0.000000
10
* Frequency(2)    0.0000
O    -1.522076   -1.792290    0.147298    0.000000    0.000000    0.000000
O    -1.522076    1.792290    0.147296    0.000000    0.000000    0.000000
O     1.522077   -1.792289   -0.147298    0.000000    0.000000    0.000000
O     1.522077    1.792289   -0.147296    0.000000    0.000000    0.000000
Si   -0.000000   -1.278539   -0.000001    0.000000    0.000000    0.000000
Si    0.000000    1.278539   -0.000000    0.000000    0.000000    0.000000
Mg   -2.182887   -0.000000   -0.350804    0.000000    0.000000    0.000000
Mg    2.182887    0.000000    0.350806    0.000000    0.000000    0.000000
O    -0.292291   -0.000000   -1.172724    0.000000    0.000000    0.000000
O     0.292290   -0.000000    1.172724    0.000000    0.000000    0.000000
10
* Frequency(2)    0.0000
O    -1.522076   -1.792290    0.147298    0.000000    0.000000    0.000000
O    -1.522076    1.792290    0.147296    0.000000    0.000000    0.000000
O     1.522077   -1.792289   -0.147298    0.000000    0.000000    0.000000
O     1.522077    1.792289   -0.147296    0.000000    0.000000    0.000000
Si   -0.000000   -1.278539   -0.000001    0.000000    0.000000    0.000000
Si    0.000000    1.278539   -0.000000    0.000000    0.000000    0.000000
Mg   -2.182887   -0.000000   -0.350804    0.000000    0.000000    0.000000
Mg    2.182887    0.000000    0.350806    0.000000    0.000000    0.000000
O    -0.292291   -0.000000   -1.172724    0.000000    0.000000    0.000000
O     0.292290   -0.000000    1.172724    0.000000    0.000000    0.000000
10
* Frequency(2)    0.0000
O    -1.522076   -1.792290    0.147298    0.000000    0.000000    0.000000
O    -1.522076    1.792290    0.147296    0.000000    0.000000    0.000000
O     1.522077   -1.792289   -0.147298    0.000000    0.000000    0.000000
O     1.522077    1.792289   -0.147296    0.000000    0.000000    0.000000
Si   -0.000000   -1.278539   -0.000001    0.000000    0.000000    0.000000
Si    0.000000    1.278539   -0.000000    0.000000    0.000000    0.000000
Mg   -2.182887   -0.000000   -0.350804    0.000000    0.000000    0.000000
Mg    2.182887    0.000000    0.350806    0.000000    0.000000    0.000000
O    -0.292291   -0.000000   -1.172724    0.000000    0.000000    0.000000
O     0.292290   -0.000000    1.172724    0.000000    0.000000    0.000000
10
* Frequency(2)    0.0000
O    -1.522076   -1.792290    0.147298    0.000000    0.000000    0.000000
O    -1.522076    1.792290    0.147296    0.000000    0.000000    0.000000
O     1.522077   -1.792289   -0.147298    0.000000    0.000000    0.000000
O     1.522077    1.792289   -0.147296    0.000000    0.000000    0.000000
Si   -0.000000   -1.278539   -0.000001    0.000000    0.000000    0.000000
Si    0.000000    1.278539   -0.000000    0.000000    0.000000    0.000000
Mg   -2.182887   -0.000000   -0.350804    0.000000    0.000000    0.000000
Mg    2.182887    0.000000    0.350806    0.000000    0.000000    0.000000
O    -0.292291   -0.000000   -1.172724    0.000000    0.000000    0.000000
O     0.292290   -0.000000    1.172724    0.000000    0.000000    0.000000
10
* Frequency(2)    0.0000
O    -1.522076   -1.792290    0.147298    0.000000    0.000000    0.000000
O    -1.522076    1.792290    0.147296    0.000000    0.000000    0.000000
O     1.522077   -1.792289   -0.147298    0.000000    0.000000    0.000000
O     1.522077    1.792289   -0.147296    0.000000    0.000000    0.000000
Si   -0.000000   -1.278539   -0.000001    0.000000    0.000000    0.000000
Si    0.000000    1.278539   -0.000000    0.000000    0.000000    0.000000
Mg   -2.182887   -0.000000   -0.350804    0.000000    0.000000    0.000000
Mg    2.182887    0.000000    0.350806    0.000000    0.000000    0.000000
O    -0.292291   -0.000000   -1.172724    0.000000    0.000000    0.000000
O     0.292290   -0.000000    1.172724    0.000000    0.000000    0.000000
10
* Frequency(2)    0.0000
O    -1.522076   -1.792290    0.147298    0.000000    0.000000    0.000000
O    -1.522076    1.792290    0.147296    0.000000    0.000000    0.000000
O     1.522077   -1.792289   -0.147298    0.000000    0.000000    0.000000
O     1.522077    1.792289   -0.147296    0.000000    0.000000    0.000000
Si   -0.000000   -1.278539   -0.000001    0.000000    0.000000    0.000000
Si    0.000000    1.278539   -0.000000    0.000000    0.000000    0.000000
Mg   -2.182887   -0.000000   -0.350804    0.000000    0.000000    0.000000
Mg    2.182887    0.000000    0.350806    0.000000    0.000000    0.000000
O    -0.292291   -0.000000   -1.172724    0.000000    0.000000    0.000000
O     0.292290   -0.000000    1.172724    0.000000    0.000000    0.000000
10
* Frequency(2)    0.0000
O    -1.522076   -1.792290    0.147298    0.000000    0.000000    0.000000
O    -1.522076    1.792290    0.147296    0.000000    0.000000    0.000000
O     1.522077   -1.792289   -0.147298    0.000000    0.000000    0.000000
O     1.522077    1.792289   -0.147296    0.000000    0.000000    0.000000
Si   -0.000000   -1.278539   -0.000001    0.000000    0.000000    0.000000
Si    0.000000    1.278539   -0.000000    0.000000    0.000000    0.000000
Mg   -2.182887   -0.000000   -0.350804    0.000000    0.000000    0.000000
Mg    2.182887    0.000000    0.350806    0.000000    0.000000    0.000000
O    -0.292291   -0.000000   -1.172724    0.000000    0.000000    0.000000
O     0.292290   -0.000000    1.172724    0.000000    0.000000    0.000000
10
* Frequency(2)    0.0000
O    -1.522076   -1.792290    0.147298    0.000000    0.000000    0.000000
O    -1.522076    1.792290    0.147296    0.000000    0.000000    0.000000
O     1.522077   -1.792289   -0.147298    0.000000    0.000000    0.000000
O     1.522077    1.792289   -0.147296    0.000000    0.000000    0.000000
Si   -0.000000   -1.278539   -0.000001    0.000000    0.000000    0.000000
Si    0.000000    1.278539   -0.000000    0.000000    0.000000    0.000000
Mg   -2.182887   -0.000000   -0.350804    0.000000    0.000000    0.000000
Mg    2.182887    0.000000    0.350806    0.000000    0.000000    0.000000
O    -0.292291   -0.000000   -1.172724    0.000000    0.000000    0.000000
O     0.292290   -0.000000    1.172724    0.000000    0.000000    0.000000
10
* Frequency(2)    0.0000
O    -1.522076   -1.792290    0.147298    0.000000    0.000000    0.000000
O    -1.522076    1.792290    0.147296    0.000000    0.000000    0.000000
O     1.522077   -1.792289   -0.147298    0.000000    0.000000    0.000000
O     1.522077    1.792289   -0.147296    0.000000    0.000000    0.000000
Si   -0.000000   -1.278539   -0.000001    0.000000    0.000000    0.000000
Si    0.000000    1.278539   -0.000000    0.000000    0.000000    0.000000
Mg   -2.182887   -0.000000   -0.350804    0.000000    0.000000    0.000000
Mg    2.182887    0.000000    0.350806    0.000000    0.000000    0.000000
O    -0.292291   -0.000000   -1.172724    0.000000    0.000000    0.000000
O     0.292290   -0.000000    1.172724    0.000000    0.000000    0.000000
10
* Frequency(2)    0.0000
O    -1.522076   -1.792290    0.147298    0.000000    0.000000    0.000000
O    -1.522076    1.792290    0.147296    0.000000    0.000000    0.000000
O     1.522077   -1.792289   -0.147298    0.000000    0.000000    0.000000
O     1.522077    1.792289   -0.147296    0.000000    0.000000    0.000000
Si   -0.000000   -1.278539   -0.000001    0.000000    0.000000    0.000000
Si    0.000000    1.278539   -0.000000    0.000000    0.000000    0.000000
Mg   -2.182887   -0.000000   -0.350804    0.000000    0.000000    0.000000
Mg    2.182887    0.000000    0.350806    0.000000    0.000000    0.000000
O    -0.292291   -0.000000   -1.172724    0.000000    0.000000    0.000000
O     0.292290   -0.000000    1.172724    0.000000    0.000000    0.000000
10
* Frequency(2)    0.0000
O    -1.522076   -1.792290    0.147298    0.000000    0.000000    0.000000
O    -1.522076    1.792290    0.147296    0.000000    0.000000    0.000000
O     1.522077   -1.792289   -0.147298    0.000000    0.000000    0.000000
O     1.522077    1.792289   -0.147296    0.000000    0.000000    0.000000
Si   -0.000000   -1.278539   -0.000001    0.000000    0.000000    0.000000
Si    0.000000    1.278539   -0.000000    0.000000    0.000000    0.000000
Mg   -2.182887   -0.000000   -0.350804    0.000000    0.000000    0.000000
Mg    2.182887    0.000000    0.350806    0.000000    0.000000    0.000000
O    -0.292291   -0.000000   -1.172724    0.000000    0.000000    0.000000
O     0.292290   -0.000000    1.172724    0.000000    0.000000    0.000000
10
* Frequency(2)    0.0000
O    -1.522076   -1.792290    0.147298    0.000000    0.000000    0.000000
O    -1.522076    1.792290    0.147296    0.000000    0.000000    0.000000
O     1.522077   -1.792289   -0.147298    0.000000    0.000000    0.000000
O     1.522077    1.792289   -0.147296    0.000000    0.000000    0.000000
Si   -0.000000   -1.278539   -0.000001    0.000000    0.000000    0.000000
Si    0.000000    1.278539   -0.000000    0.000000    0.000000    0.000000
Mg   -2.182887   -0.000000   -0.350804    0.000000    0.000000    0.000000
Mg    2.182887    0.000000    0.350806    0.000000    0.000000    0.000000
O    -0.292291   -0.000000   -1.172724    0.000000    0.000000    0.000000
O     0.292290   -0.000000    1.172724    0.000000    0.000000    0.000000
10
* Frequency(2)    0.0000
O    -1.522076   -1.792290    0.147298    0.000000    0.000000    0.000000
O    -1.522076    1.792290    0.147296    0.000000    0.000000    0.000000
O     1.522077   -1.792289   -0.147298    0.000000    0.000000    0.000000
O     1.522077    1.792289   -0.147296    0.000000    0.000000    0.000000
Si   -0.000000   -1.278539   -0.000001    0.000000    0.000000    0.000000
Si    0.000000    1.278539   -0.000000    0.000000    0.000000    0.000000
Mg   -2.182887   -0.000000   -0.350804    0.000000    0.000000    0.000000
Mg    2.182887    0.000000    0.350806    0.000000    0.000000    0.000000
O    -0.292291   -0.000000   -1.172724    0.000000    0.000000    0.000000
O     0.292290   -0.000000    1.172724    0.000000    0.000000    0.000000
10
* Frequency(2)    0.0000
O    -1.522076   -1.792290    0.147298    0.000000    0.000000    0.000000
O    -1.522076    1.792290    0.147296    0.000000    0.000000    0.000000
O     1.522077   -1.792289   -0.147298    0.000000    0.000000    0.000000
O     1.522077    1.792289   -0.147296    0.000000    0.000000    0.000000
Si   -0.000000   -1.278539   -0.000001    0.000000    0.000000    0.000000
Si    0.000000    1.278539   -0.000000    0.000000    0.000000    0.000000
Mg   -2.182887   -0.000000   -0.350804    0.000000    0.000000    0.000000
Mg    2.182887    0.000000    0.350806    0.000000    0.000000    0.000000
O    -0.292291   -0.000000   -1.172724    0.000000    0.000000    0.000000
O     0.292290   -0.000000    1.172724    0.000000    0.000000    0.000000
10
* Frequency(2)    0.0000
O    -1.522076   -1.792290    0.147298    0.000000    0.000000    0.000000
O    -1.522076    1.792290    0.147296    0.000000    0.000000    0.000000
O     1.522077   -1.792289   -0.147298    0.000000    0.000000    0.000000
O     1.522077    1.792289   -0.147296    0.000000    0.000000    0.000000
Si   -0.000000   -1.278539   -0.000001    0.000000    0.000000    0.000000
Si    0.000000    1.278539   -0.000000    0.000000    0.000000    0.000000
Mg   -2.182887   -0.000000   -0.350804    0.000000    0.000000    0.000000
Mg    2.182887    0.000000    0.350806    0.000000    0.000000    0.000000
O    -0.292291   -0.000000   -1.172724    0.000000    0.000000    0.000000
O     0.292290   -0.000000    1.172724    0.000000    0.000000    0.000000
10
* Frequency(2)    0.0000
O    -1.522076   -1.792290    0.147298    0.000000    0.000000    0.000000
O    -1.522076    1.792290    0.147296    0.000000    0.000000    0.000000
O     1.522077   -1.792289   -0.147298    0.000000    0.000000    0.000000
O     1.522077    1.792289   -0.147296    0.000000    0.000000    0.000000
Si   -0.000000   -1.278539   -0.000001    0.000000    0.000000    0.000000
Si    0.000000    1.278539   -0.000000    0.000000    0.000000    0.000000
Mg   -2.182887   -0.000000   -0.350804    0.000000    0.000000    0.000000
Mg    2.182887    0.000000    0.350806    0.000000    0.000000    0.000000
O    -0.292291   -0.000000   -1.172724    0.000000    0.000000    0.000000
O     0.292290   -0.000000    1.172724    0.000000    0.000000    0.000000
10
* Frequency(2)    0.0000
O    -1.522076   -1.792290    0.147298    0.000000    0.000000    0.000000
O    -1.522076    1.792290    0.147296    0.000000    0.000000    0.000000
O     1.522077   -1.792289   -0.147298    0.000000    0.000000    0.000000
O     1.522077    1.792289   -0.147296    0.000000    0.000000    0.000000
Si   -0.000000   -1.278539   -0.000001    0.000000    0.000000    0.000000
Si    0.000000    1.278539   -0.000000    0.000000    0.000000    0.000000
Mg   -2.182887   -0.000000   -0.350804    0.000000    0.000000    0.000000
Mg    2.182887    0.000000    0.350806    0.000000    0.000000    0.000000
O    -0.292291   -0.000000   -1.172724    0.000000    0.000000    0.000000
O     0.292290   -0.000000    1.172724    0.000000    0.000000    0.000000
