10
* (null), Energy   -1000.0000000
O    -1.522076   -1.792290    0.147298   -0.289789    0.653480   -0.119371
O    -1.522076    1.792290    0.147296    0.289793    0.653482    0.119372
O     1.522077   -1.792289   -0.147298   -0.289783   -0.653471   -0.119369
O     1.522077    1.792289   -0.147296    0.289786   -0.653473    0.119370
Si   -0.000000   -1.278539   -0.000001    0.089457    0.000001    0.094668
Si    0.000000    1.278539   -0.000000   -0.089455   -0.000000   -0.094669
Mg   -2.182887   -0.000000   -0.350804   -0.000002   -0.886362   -0.000001
Mg    2.182887    0.000000    0.350806   -0.000003    0.886353   -0.000001
O    -0.292291   -0.000000   -1.172724   -0.000002    0.383260    0.000001
O     0.292290   -0.000000    1.172724   -0.000001   -0.383265    0.000000
10
* Frequency(17)  519.9861
O    -1.555009   -1.718025    0.133732   -0.289789    0.653480   -0.119371
O    -1.489142    1.866555    0.160862    0.289793    0.653482    0.119372
O     1.489144   -1.866552   -0.160864   -0.289783   -0.653471   -0.119369
O     1.555009    1.718025   -0.133730    0.289786   -0.653473    0.119370
Si    0.010166   -1.278539    0.010758    0.089457    0.000001    0.094668
Si   -0.010166    1.278539   -0.010759   -0.089455   -0.000000   -0.094669
Mg   -2.182887   -0.100730   -0.350804   -0.000002   -0.886362   -0.000001
Mg    2.182887    0.100730    0.350806   -0.000003    0.886353   -0.000001
O    -0.292291    0.043555   -1.172724   -0.000002    0.383260    0.000001
O     0.292290   -0.043556    1.172724   -0.000001   -0.383265    0.000000
10
* Frequency(17)  519.9861
O    -1.584374   -1.651808    0.121636   -0.289789    0.653480   -0.119371
O    -1.459778    1.932772    0.172958    0.289793    0.653482    0.119372
O     1.459781   -1.932768   -0.172959   -0.289783   -0.653471   -0.119369
O     1.584373    1.651809   -0.121635    0.289786   -0.653473    0.119370
Si    0.019231   -1.278539    0.020351    0.089457    0.000001    0.094668
Si   -0.019230    1.278539   -0.020352   -0.089455   -0.000000   -0.094669
Mg   -2.182888   -0.190545   -0.350804   -0.000002   -0.886362   -0.000001
Mg    2.182887    0.190544    0.350805   -0.000003    0.886353   -0.000001
O    -0.292292    0.082391   -1.172724   -0.000002    0.383260    0.000001
O     0.292290   -0.082392    1.172724   -0.000001   -0.383265    0.000000
10
* Frequency(17)  519.9861
O    -1.606987   -1.600815    0.112321   -0.289789    0.653480   -0.119371
O    -1.437164    1.983765    0.182273    0.289793    0.653482    0.119372
O     1.437168   -1.983761   -0.182274   -0.289783   -0.653471   -0.119369
O     1.606986    1.600816   -0.112320    0.289786   -0.653473    0.119370
Si    0.026211   -1.278539    0.027738    0.089457    0.000001    0.094668
Si   -0.026211    1.278539   -0.027739   -0.089455   -0.000000   -0.094669
Mg   -2.182888   -0.259711   -0.350805   -0.000002   -0.886362   -0.000001
Mg    2.182886    0.259709    0.350805   -0.000003    0.886353   -0.000001
O    -0.292292    0.112298   -1.172724   -0.000002    0.383260    0.000001
O     0.292290   -0.112300    1.172724   -0.000001   -0.383265    0.000000
10
* Frequency(17)  519.9861
O    -1.620399   -1.570571    0.106797   -0.289789    0.653480   -0.119371
O    -1.423752    2.014010    0.187798    0.289793    0.653482    0.119372
O     1.423756   -2.014005   -0.187799   -0.289783   -0.653471   -0.119369
O     1.620398    1.570572   -0.106795    0.289786   -0.653473    0.119370
Si    0.030352   -1.278539    0.032119    0.089457    0.000001    0.094668
Si   -0.030351    1.278539   -0.032120   -0.089455   -0.000000   -0.094669
Mg   -2.182888   -0.300734   -0.350805   -0.000002   -0.886362   -0.000001
Mg    2.182886    0.300731    0.350805   -0.000003    0.886353   -0.000001
O    -0.292292    0.130036   -1.172724   -0.000002    0.383260    0.000001
O     0.292290   -0.130038    1.172724   -0.000001   -0.383265    0.000000
10
* Frequency(17)  519.9861
O    -1.623156   -1.564353    0.105661   -0.289789    0.653480   -0.119371
O    -1.420995    2.020227    0.188933    0.289793    0.653482    0.119372
O     1.420999   -2.020223   -0.188934   -0.289783   -0.653471   -0.119369
O     1.623155    1.564355   -0.105659    0.289786   -0.653473    0.119370
Si    0.031203   -1.278539    0.033020    0.089457    0.000001    0.094668
Si   -0.031202    1.278539   -0.033021   -0.089455   -0.000000   -0.094669
Mg   -2.182888   -0.309167   -0.350805   -0.000002   -0.886362   -0.000001
Mg    2.182886    0.309164    0.350805   -0.000003    0.886353   -0.000001
O    -0.292292    0.133682   -1.172724   -0.000002    0.383260    0.000001
O     0.292290   -0.133685    1.172724   -0.000001   -0.383265    0.000000
10
* Frequency(17)  519.9861
O    -1.614960   -1.582836    0.109037   -0.289789    0.653480   -0.119371
O    -1.429191    2.001744    0.185557    0.289793    0.653482    0.119372
O     1.429195   -2.001740   -0.185558   -0.289783   -0.653471   -0.119369
O     1.614959    1.582838   -0.109035    0.289786   -0.653473    0.119370
Si    0.028673   -1.278539    0.030342    0.089457    0.000001    0.094668
Si   -0.028672    1.278539   -0.030343   -0.089455   -0.000000   -0.094669
Mg   -2.182888   -0.284097   -0.350805   -0.000002   -0.886362   -0.000001
Mg    2.182886    0.284095    0.350805   -0.000003    0.886353   -0.000001
O    -0.292292    0.122842   -1.172724   -0.000002    0.383260    0.000001
O     0.292290   -0.122845    1.172724   -0.000001   -0.383265    0.000000
10
* Frequency(17)  519.9861
O    -1.596698   -1.624017    0.116560   -0.289789    0.653480   -0.119371
O    -1.447453    1.960563    0.178035    0.289793    0.653482    0.119372
O     1.447456   -1.960560   -0.178036   -0.289783   -0.653471   -0.119369
O     1.596698    1.624018   -0.116558    0.289786   -0.653473    0.119370
Si    0.023035   -1.278539    0.024377    0.089457    0.000001    0.094668
Si   -0.023035    1.278539   -0.024378   -0.089455   -0.000000   -0.094669
Mg   -2.182888   -0.228241   -0.350805   -0.000002   -0.886362   -0.000001
Mg    2.182886    0.228239    0.350805   -0.000003    0.886353   -0.000001
O    -0.292292    0.098690   -1.172724   -0.000002    0.383260    0.000001
O     0.292290   -0.098692    1.172724   -0.000001   -0.383265    0.000000
10
* Frequency(17)  519.9861
O    -1.570350   -1.683432    0.127413   -0.289789    0.653480   -0.119371
O    -1.473802    1.901148    0.167181    0.289793    0.653482    0.119372
O     1.473804   -1.901145   -0.167183   -0.289783   -0.653471   -0.119369
O     1.570350    1.683433   -0.127411    0.289786   -0.653473    0.119370
Si    0.014902   -1.278539    0.015769    0.089457    0.000001    0.094668
Si   -0.014901    1.278539   -0.015770   -0.089455   -0.000000   -0.094669
Mg   -2.182887   -0.147652   -0.350804   -0.000002   -0.886362   -0.000001
Mg    2.182887    0.147650    0.350805   -0.000003    0.886353   -0.000001
O    -0.292292    0.063844   -1.172724   -0.000002    0.383260    0.000001
O     0.292290   -0.063845    1.172724   -0.000001   -0.383265    0.000000
10
* Frequency(17)  519.9861
O    -1.538771   -1.754644    0.140421   -0.289789    0.653480   -0.119371
O    -1.505381    1.829936    0.154173    0.289793    0.653482    0.119372
O     1.505383   -1.829934   -0.154175   -0.289783   -0.653471   -0.119369
O     1.538771    1.754644   -0.140419    0.289786   -0.653473    0.119370
Si    0.005153   -1.278539    0.005453    0.089457    0.000001    0.094668
Si   -0.005153    1.278539   -0.005454   -0.089455   -0.000000   -0.094669
Mg   -2.182887   -0.051062   -0.350804   -0.000002   -0.886362   -0.000001
Mg    2.182887    0.051061    0.350806   -0.000003    0.886353   -0.000001
O    -0.292291    0.022079   -1.172724   -0.000002    0.383260    0.000001
O     0.292290   -0.022079    1.172724   -0.000001   -0.383265    0.000000
10
* Frequency(17)  519.9861
O    -1.505382   -1.829935    0.154175   -0.289789    0.653480   -0.119371
O    -1.538770    1.754644    0.140419    0.289793    0.653482    0.119372
O     1.538770   -1.754643   -0.140421   -0.289783   -0.653471   -0.119369
O     1.505383    1.829935   -0.154173    0.289786   -0.653473    0.119370
Si   -0.005153   -1.278539   -0.005454    0.089457    0.000001    0.094668
Si    0.005154    1.278539    0.005454   -0.089455   -0.000000   -0.094669
Mg   -2.182887    0.051062   -0.350804   -0.000002   -0.886362   -0.000001
Mg    2.182887   -0.051061    0.350806   -0.000003    0.886353   -0.000001
O    -0.292291   -0.022079   -1.172724   -0.000002    0.383260    0.000001
O     0.292290    0.022079    1.172724   -0.000001   -0.383265    0.000000
10
* Frequency(17)  519.9861
O    -1.473803   -1.901147    0.167183   -0.289789    0.653480   -0.119371
O    -1.570350    1.683432    0.127410    0.289793    0.653482    0.119372
O     1.570349   -1.683432   -0.127413   -0.289783   -0.653471   -0.119369
O     1.473804    1.901146   -0.167181    0.289786   -0.653473    0.119370
Si   -0.014902   -1.278539   -0.015770    0.089457    0.000001    0.094668
Si    0.014902    1.278539    0.015770   -0.089455   -0.000000   -0.094669
Mg   -2.182887    0.147652   -0.350804   -0.000002   -0.886362   -0.000001
Mg    2.182887   -0.147650    0.350806   -0.000003    0.886353   -0.000001
O    -0.292291   -0.063844   -1.172724   -0.000002    0.383260    0.000001
O     0.292290    0.063845    1.172724   -0.000001   -0.383265    0.000000
10
* Frequency(17)  519.9861
O    -1.447455   -1.960563    0.178036   -0.289789    0.653480   -0.119371
O    -1.596698    1.624016    0.116557    0.289793    0.653482    0.119372
O     1.596697   -1.624018   -0.116560   -0.289783   -0.653471   -0.119369
O     1.447456    1.960561   -0.178034    0.289786   -0.653473    0.119370
Si   -0.023035   -1.278539   -0.024378    0.089457    0.000001    0.094668
Si    0.023035    1.278539    0.024377   -0.089455   -0.000000   -0.094669
Mg   -2.182887    0.228241   -0.350804   -0.000002   -0.886362   -0.000001
Mg    2.182888   -0.228239    0.350806   -0.000003    0.886353   -0.000001
O    -0.292291   -0.098691   -1.172724   -0.000002    0.383260    0.000001
O     0.292290    0.098692    1.172724   -0.000001   -0.383265    0.000000
10
* Frequency(17)  519.9861
O    -1.429193   -2.001743    0.185559   -0.289789    0.653480   -0.119371
O    -1.614960    1.582835    0.109034    0.289793    0.653482    0.119372
O     1.614958   -1.582838   -0.109038   -0.289783   -0.653471   -0.119369
O     1.429194    2.001741   -0.185557    0.289786   -0.653473    0.119370
Si   -0.028673   -1.278540   -0.030344    0.089457    0.000001    0.094668
Si    0.028672    1.278539    0.030343   -0.089455   -0.000000   -0.094669
Mg   -2.182887    0.284097   -0.350804   -0.000002   -0.886362   -0.000001
Mg    2.182888   -0.284094    0.350806   -0.000003    0.886353   -0.000001
O    -0.292291   -0.122843   -1.172724   -0.000002    0.383260    0.000001
O     0.292291    0.122844    1.172724   -0.000001   -0.383265    0.000000
10
* Frequency(17)  519.9861
O    -1.420996   -2.020226    0.188935   -0.289789    0.653480   -0.119371
O    -1.623157    1.564352    0.105658    0.289793    0.653482    0.119372
O     1.623154   -1.564355   -0.105662   -0.289783   -0.653471   -0.119369
O     1.420998    2.020224   -0.188933    0.289786   -0.653473    0.119370
Si   -0.031203   -1.278540   -0.033021    0.089457    0.000001    0.094668
Si    0.031202    1.278539    0.033021   -0.089455   -0.000000   -0.094669
Mg   -2.182886    0.309167   -0.350804   -0.000002   -0.886362   -0.000001
Mg    2.182888   -0.309164    0.350806   -0.000003    0.886353   -0.000001
O    -0.292290   -0.133683   -1.172724   -0.000002    0.383260    0.000001
O     0.292291    0.133684    1.172724   -0.000001   -0.383265    0.000000
10
* Frequency(17)  519.9861
O    -1.423754   -2.014009    0.187799   -0.289789    0.653480   -0.119371
O    -1.620400    1.570570    0.106794    0.289793    0.653482    0.119372
O     1.620397   -1.570572   -0.106798   -0.289783   -0.653471   -0.119369
O     1.423755    2.014006   -0.187797    0.289786   -0.653473    0.119370
Si   -0.030352   -1.278540   -0.032120    0.089457    0.000001    0.094668
Si    0.030351    1.278539    0.032120   -0.089455   -0.000000   -0.094669
Mg   -2.182886    0.300734   -0.350804   -0.000002   -0.886362   -0.000001
Mg    2.182888   -0.300731    0.350806   -0.000003    0.886353   -0.000001
O    -0.292290   -0.130036   -1.172724   -0.000002    0.383260    0.000001
O     0.292291    0.130038    1.172724   -0.000001   -0.383265    0.000000
10
* Frequency(17)  519.9861
O    -1.437166   -1.983765    0.182275   -0.289789    0.653480   -0.119371
O    -1.606988    1.600814    0.112319    0.289793    0.653482    0.119372
O     1.606985   -1.600816   -0.112322   -0.289783   -0.653471   -0.119369
O     1.437167    1.983762   -0.182273    0.289786   -0.653473    0.119370
Si   -0.026212   -1.278539   -0.027739    0.089457    0.000001    0.094668
Si    0.026211    1.278539    0.027739   -0.089455   -0.000000   -0.094669
Mg   -2.182887    0.259711   -0.350804   -0.000002   -0.886362   -0.000001
Mg    2.182888   -0.259709    0.350806   -0.000003    0.886353   -0.000001
O    -0.292291   -0.112299   -1.172724   -0.000002    0.383260    0.000001
O     0.292291    0.112299    1.172724   -0.000001   -0.383265    0.000000
10
* Frequency(17)  519.9861
O    -1.459779   -1.932771    0.172960   -0.289789    0.653480   -0.119371
O    -1.584374    1.651808    0.121634    0.289793    0.653482    0.119372
O     1.584372   -1.651809   -0.121637   -0.289783   -0.653471   -0.119369
O     1.459780    1.932769   -0.172958    0.289786   -0.653473    0.119370
Si   -0.019231   -1.278539   -0.020352    0.089457    0.000001    0.094668
Si    0.019231    1.278539    0.020351   -0.089455   -0.000000   -0.094669
Mg   -2.182887    0.190545   -0.350804   -0.000002   -0.886362   -0.000001
Mg    2.182888   -0.190543    0.350806   -0.000003    0.886353   -0.000001
O    -0.292291   -0.082391   -1.172724   -0.000002    0.383260    0.000001
O     0.292290    0.082392    1.172724   -0.000001   -0.383265    0.000000
10
* Frequency(17)  519.9861
O    -1.489143   -1.866554    0.160864   -0.289789    0.653480   -0.119371
O    -1.555009    1.718025    0.133730    0.289793    0.653482    0.119372
O     1.555009   -1.718025   -0.133732   -0.289783   -0.653471   -0.119369
O     1.489144    1.866553   -0.160862    0.289786   -0.653473    0.119370
Si   -0.010166   -1.278539   -0.010759    0.089457    0.000001    0.094668
Si    0.010166    1.278539    0.010758   -0.089455   -0.000000   -0.094669
Mg   -2.182887    0.100730   -0.350804   -0.000002   -0.886362   -0.000001
Mg    2.182887   -0.100729    0.350806   -0.000003    0.886353   -0.000001
O    -0.292291   -0.043556   -1.172724   -0.000002    0.383260    0.000001
O     0.292290    0.043556    1.172724   -0.000001   -0.383265    0.000000
10
* Frequency(17)  519.9861
O    -1.522076   -1.792290    0.147298   -0.289789    0.653480   -0.119371
O    -1.522076    1.792290    0.147296    0.289793    0.653482    0.119372
O     1.522077   -1.792289   -0.147298   -0.289783   -0.653471   -0.119369
O     1.522077    1.792289   -0.147296    0.289786   -0.653473    0.119370
Si   -0.000000   -1.278539   -0.000001    0.089457    0.000001    0.094668
Si    0.000000    1.278539   -0.000000   -0.089455   -0.000000   -0.094669
Mg   -2.182887   -0.000000   -0.350804   -0.000002   -0.886362   -0.000001
Mg    2.182887    0.000000    0.350806   -0.000003    0.886353   -0.000001
O    -0.292291   -0.000000   -1.172724   -0.000002    0.383260    0.000001
O     0.292290   -0.000000    1.172724   -0.000001   -0.383265    0.000000
