10
* (null), Energy   -1000.0000000
O    -1.522076   -1.792290    0.147298    0.533127   -0.240135    0.214893
O    -1.522076    1.792290    0.147296    0.533125    0.240131    0.214893
O     1.522077   -1.792289   -0.147298    0.533125    0.240136    0.214891
O     1.522077    1.792289   -0.147296    0.533124   -0.240132    0.214891
Si   -0.000000   -1.278539   -0.000001    0.336161    0.000001   -0.034608
Si    0.000000    1.278539   -0.000000    0.336162   -0.000002   -0.034609
Mg   -2.182887   -0.000000   -0.350804   -1.010416    0.000003   -0.269088
Mg    2.182887    0.000000    0.350806   -1.010415   -0.000002   -0.269090
O    -0.292291   -0.000000   -1.172724   -0.121393   -0.000001    0.039758
O     0.292290   -0.000000    1.172724   -0.121401    0.000001    0.039760
10
* Frequency(16)  469.6603
O    -1.461489   -1.819580    0.171719    0.533127   -0.240135    0.214893
O    -1.461489    1.819579    0.171717    0.533125    0.240131    0.214893
O     1.582663   -1.764999   -0.122877    0.533125    0.240136    0.214891
O     1.582663    1.765000   -0.122875    0.533124   -0.240132    0.214891
Si    0.038203   -1.278539   -0.003934    0.336161    0.000001   -0.034608
Si    0.038203    1.278539   -0.003933    0.336162   -0.000002   -0.034609
Mg   -2.297716    0.000000   -0.381385   -1.010416    0.000003   -0.269088
Mg    2.068059   -0.000000    0.320225   -1.010415   -0.000002   -0.269090
O    -0.306087   -0.000000   -1.168205   -0.121393   -0.000001    0.039758
O     0.278493   -0.000000    1.177242   -0.121401    0.000001    0.039760
10
* Frequency(16)  469.6603
O    -1.407468   -1.843913    0.193494    0.533127   -0.240135    0.214893
O    -1.407468    1.843912    0.193492    0.533125    0.240131    0.214893
O     1.636685   -1.740666   -0.101102    0.533125    0.240136    0.214891
O     1.636685    1.740667   -0.101100    0.533124   -0.240132    0.214891
Si    0.072266   -1.278539   -0.007440    0.336161    0.000001   -0.034608
Si    0.072267    1.278539   -0.007440    0.336162   -0.000002   -0.034609
Mg   -2.400101    0.000001   -0.408651   -1.010416    0.000003   -0.269088
Mg    1.965674   -0.000000    0.292958   -1.010415   -0.000002   -0.269090
O    -0.318388   -0.000001   -1.164177   -0.121393   -0.000001    0.039758
O     0.266192   -0.000000    1.181271   -0.121401    0.000001    0.039760
10
* Frequency(16)  469.6603
O    -1.365866   -1.862651    0.210263    0.533127   -0.240135    0.214893
O    -1.365866    1.862650    0.210261    0.533125    0.240131    0.214893
O     1.678287   -1.721927   -0.084333    0.533125    0.240136    0.214891
O     1.678286    1.721929   -0.084331    0.533124   -0.240132    0.214891
Si    0.098498   -1.278539   -0.010141    0.336161    0.000001   -0.034608
Si    0.098499    1.278539   -0.010141    0.336162   -0.000002   -0.034609
Mg   -2.478947    0.000001   -0.429649   -1.010416    0.000003   -0.269088
Mg    1.886827   -0.000000    0.271960   -1.010415   -0.000002   -0.269090
O    -0.327860   -0.000001   -1.161074   -0.121393   -0.000001    0.039758
O     0.256719    0.000000    1.184374   -0.121401    0.000001    0.039760
10
* Frequency(16)  469.6603
O    -1.341192   -1.873765    0.220209    0.533127   -0.240135    0.214893
O    -1.341192    1.873764    0.220207    0.533125    0.240131    0.214893
O     1.702961   -1.710813   -0.074388    0.533125    0.240136    0.214891
O     1.702960    1.710815   -0.074386    0.533124   -0.240132    0.214891
Si    0.114056   -1.278539   -0.011743    0.336161    0.000001   -0.034608
Si    0.114057    1.278539   -0.011743    0.336162   -0.000002   -0.034609
Mg   -2.525711    0.000001   -0.442103   -1.010416    0.000003   -0.269088
Mg    1.840063   -0.000001    0.259506   -1.010415   -0.000002   -0.269090
O    -0.333479   -0.000001   -1.159234   -0.121393   -0.000001    0.039758
O     0.251100    0.000000    1.186214   -0.121401    0.000001    0.039760
10
* Frequency(16)  469.6603
O    -1.336119   -1.876050    0.222254    0.533127   -0.240135    0.214893
O    -1.336119    1.876049    0.222251    0.533125    0.240131    0.214893
O     1.708033   -1.708528   -0.072343    0.533125    0.240136    0.214891
O     1.708033    1.708530   -0.072341    0.533124   -0.240132    0.214891
Si    0.117255   -1.278539   -0.012072    0.336161    0.000001   -0.034608
Si    0.117255    1.278539   -0.012072    0.336162   -0.000002   -0.034609
Mg   -2.535325    0.000001   -0.444663   -1.010416    0.000003   -0.269088
Mg    1.830450   -0.000001    0.256946   -1.010415   -0.000002   -0.269090
O    -0.334634   -0.000001   -1.158856   -0.121393   -0.000001    0.039758
O     0.249945    0.000000    1.186592   -0.121401    0.000001    0.039760
10
* Frequency(16)  469.6603
O    -1.351198   -1.869258    0.216176    0.533127   -0.240135    0.214893
O    -1.351198    1.869257    0.216173    0.533125    0.240131    0.214893
O     1.692954   -1.715320   -0.078421    0.533125    0.240136    0.214891
O     1.692954    1.715322   -0.078419    0.533124   -0.240132    0.214891
Si    0.107747   -1.278539   -0.011093    0.336161    0.000001   -0.034608
Si    0.107747    1.278539   -0.011093    0.336162   -0.000002   -0.034609
Mg   -2.506746    0.000001   -0.437053   -1.010416    0.000003   -0.269088
Mg    1.859028   -0.000001    0.264557   -1.010415   -0.000002   -0.269090
O    -0.331200   -0.000001   -1.159980   -0.121393   -0.000001    0.039758
O     0.253379    0.000000    1.185468   -0.121401    0.000001    0.039760
10
* Frequency(16)  469.6603
O    -1.384794   -1.854125    0.202634    0.533127   -0.240135    0.214893
O    -1.384794    1.854124    0.202631    0.533125    0.240131    0.214893
O     1.659358   -1.730453   -0.091963    0.533125    0.240136    0.214891
O     1.659358    1.730455   -0.091961    0.533124   -0.240132    0.214891
Si    0.086563   -1.278539   -0.008912    0.336161    0.000001   -0.034608
Si    0.086563    1.278539   -0.008912    0.336162   -0.000002   -0.034609
Mg   -2.443073    0.000001   -0.420095   -1.010416    0.000003   -0.269088
Mg    1.922702   -0.000000    0.281514   -1.010415   -0.000002   -0.269090
O    -0.323550   -0.000001   -1.162486   -0.121393   -0.000001    0.039758
O     0.261029    0.000000    1.182962   -0.121401    0.000001    0.039760
10
* Frequency(16)  469.6603
O    -1.433267   -1.832292    0.183095    0.533127   -0.240135    0.214893
O    -1.433267    1.832291    0.183093    0.533125    0.240131    0.214893
O     1.610885   -1.752287   -0.111501    0.533125    0.240136    0.214891
O     1.610885    1.752288   -0.111499    0.533124   -0.240132    0.214891
Si    0.055998   -1.278539   -0.005766    0.336161    0.000001   -0.034608
Si    0.055999    1.278539   -0.005765    0.336162   -0.000002   -0.034609
Mg   -2.351204    0.000001   -0.395629   -1.010416    0.000003   -0.269088
Mg    2.014570   -0.000000    0.305980   -1.010415   -0.000002   -0.269090
O    -0.312513   -0.000001   -1.166101   -0.121393   -0.000001    0.039758
O     0.272067   -0.000000    1.179347   -0.121401    0.000001    0.039760
10
* Frequency(16)  469.6603
O    -1.491364   -1.806123    0.159677    0.533127   -0.240135    0.214893
O    -1.491364    1.806123    0.159675    0.533125    0.240131    0.214893
O     1.552789   -1.778455   -0.134919    0.533125    0.240136    0.214891
O     1.552789    1.778456   -0.134917    0.533124   -0.240132    0.214891
Si    0.019366   -1.278539   -0.001994    0.336161    0.000001   -0.034608
Si    0.019366    1.278539   -0.001994    0.336162   -0.000002   -0.034609
Mg   -2.241095    0.000000   -0.366306   -1.010416    0.000003   -0.269088
Mg    2.124679    0.000000    0.335304   -1.010415   -0.000002   -0.269090
O    -0.299284   -0.000000   -1.170433   -0.121393   -0.000001    0.039758
O     0.285296   -0.000000    1.175014   -0.121401    0.000001    0.039760
10
* Frequency(16)  469.6603
O    -1.552789   -1.778456    0.134918    0.533127   -0.240135    0.214893
O    -1.552788    1.778456    0.134916    0.533125    0.240131    0.214893
O     1.491364   -1.806122   -0.159678    0.533125    0.240136    0.214891
O     1.491364    1.806123   -0.159676    0.533124   -0.240132    0.214891
Si   -0.019366   -1.278539    0.001993    0.336161    0.000001   -0.034608
Si   -0.019365    1.278539    0.001994    0.336162   -0.000002   -0.034609
Mg   -2.124679   -0.000000   -0.335303   -1.010416    0.000003   -0.269088
Mg    2.241095    0.000000    0.366307   -1.010415   -0.000002   -0.269090
O    -0.285298   -0.000000   -1.175014   -0.121393   -0.000001    0.039758
O     0.299284   -0.000000    1.170433   -0.121401    0.000001    0.039760
10
* Frequency(16)  469.6603
O    -1.610886   -1.752288    0.111501    0.533127   -0.240135    0.214893
O    -1.610885    1.752288    0.111499    0.533125    0.240131    0.214893
O     1.433268   -1.832291   -0.183095    0.533125    0.240136    0.214891
O     1.433268    1.832291   -0.183093    0.533124   -0.240132    0.214891
Si   -0.055998   -1.278539    0.005764    0.336161    0.000001   -0.034608
Si   -0.055998    1.278539    0.005765    0.336162   -0.000002   -0.034609
Mg   -2.014570   -0.000001   -0.305979   -1.010416    0.000003   -0.269088
Mg    2.351204    0.000001    0.395631   -1.010415   -0.000002   -0.269090
O    -0.272069   -0.000000   -1.179347   -0.121393   -0.000001    0.039758
O     0.312513   -0.000000    1.166100   -0.121401    0.000001    0.039760
10
* Frequency(16)  469.6603
O    -1.659358   -1.730454    0.091962    0.533127   -0.240135    0.214893
O    -1.659357    1.730455    0.091960    0.533125    0.240131    0.214893
O     1.384795   -1.854124   -0.202633    0.533125    0.240136    0.214891
O     1.384795    1.854124   -0.202631    0.533124   -0.240132    0.214891
Si   -0.086563   -1.278540    0.008911    0.336161    0.000001   -0.034608
Si   -0.086563    1.278540    0.008912    0.336162   -0.000002   -0.034609
Mg   -1.922702   -0.000001   -0.281513   -1.010416    0.000003   -0.269088
Mg    2.443072    0.000001    0.420097   -1.010415   -0.000002   -0.269090
O    -0.261032    0.000000   -1.182962   -0.121393   -0.000001    0.039758
O     0.323551   -0.000000    1.162485   -0.121401    0.000001    0.039760
10
* Frequency(16)  469.6603
O    -1.692955   -1.715321    0.078420    0.533127   -0.240135    0.214893
O    -1.692954    1.715323    0.078418    0.533125    0.240131    0.214893
O     1.351199   -1.869257   -0.216175    0.533125    0.240136    0.214891
O     1.351199    1.869256   -0.216173    0.533124   -0.240132    0.214891
Si   -0.107747   -1.278540    0.011092    0.336161    0.000001   -0.034608
Si   -0.107747    1.278540    0.011093    0.336162   -0.000002   -0.034609
Mg   -1.859028   -0.000001   -0.264556   -1.010416    0.000003   -0.269088
Mg    2.506746    0.000001    0.437055   -1.010415   -0.000002   -0.269090
O    -0.253382    0.000000   -1.185467   -0.121393   -0.000001    0.039758
O     0.331202   -0.000001    1.159980   -0.121401    0.000001    0.039760
10
* Frequency(16)  469.6603
O    -1.708034   -1.708530    0.072342    0.533127   -0.240135    0.214893
O    -1.708032    1.708531    0.072340    0.533125    0.240131    0.214893
O     1.336120   -1.876049   -0.222253    0.533125    0.240136    0.214891
O     1.336121    1.876048   -0.222251    0.533124   -0.240132    0.214891
Si   -0.117255   -1.278540    0.012071    0.336161    0.000001   -0.034608
Si   -0.117255    1.278540    0.012072    0.336162   -0.000002   -0.034609
Mg   -1.830449   -0.000001   -0.256945   -1.010416    0.000003   -0.269088
Mg    2.535325    0.000001    0.444666   -1.010415   -0.000002   -0.269090
O    -0.249949    0.000000   -1.186592   -0.121393   -0.000001    0.039758
O     0.334635   -0.000001    1.158855   -0.121401    0.000001    0.039760
10
* Frequency(16)  469.6603
O    -1.702961   -1.710814    0.074387    0.533127   -0.240135    0.214893
O    -1.702960    1.710816    0.074385    0.533125    0.240131    0.214893
O     1.341192   -1.873764   -0.220209    0.533125    0.240136    0.214891
O     1.341193    1.873764   -0.220207    0.533124   -0.240132    0.214891
Si   -0.114056   -1.278540    0.011742    0.336161    0.000001   -0.034608
Si   -0.114056    1.278540    0.011742    0.336162   -0.000002   -0.034609
Mg   -1.840063   -0.000001   -0.259505   -1.010416    0.000003   -0.269088
Mg    2.525711    0.000001    0.442105   -1.010415   -0.000002   -0.269090
O    -0.251104    0.000000   -1.186213   -0.121393   -0.000001    0.039758
O     0.333480   -0.000001    1.159233   -0.121401    0.000001    0.039760
10
* Frequency(16)  469.6603
O    -1.678287   -1.721928    0.084332    0.533127   -0.240135    0.214893
O    -1.678286    1.721929    0.084330    0.533125    0.240131    0.214893
O     1.365866   -1.862650   -0.210263    0.533125    0.240136    0.214891
O     1.365867    1.862650   -0.210261    0.533124   -0.240132    0.214891
Si   -0.098498   -1.278540    0.010140    0.336161    0.000001   -0.034608
Si   -0.098498    1.278540    0.010140    0.336162   -0.000002   -0.034609
Mg   -1.886827   -0.000001   -0.271959   -1.010416    0.000003   -0.269088
Mg    2.478947    0.000001    0.429651   -1.010415   -0.000002   -0.269090
O    -0.256722    0.000000   -1.184373   -0.121393   -0.000001    0.039758
O     0.327862   -0.000001    1.161074   -0.121401    0.000001    0.039760
10
* Frequency(16)  469.6603
O    -1.636685   -1.740667    0.101101    0.533127   -0.240135    0.214893
O    -1.636684    1.740668    0.101099    0.533125    0.240131    0.214893
O     1.407468   -1.843912   -0.193494    0.533125    0.240136    0.214891
O     1.407469    1.843911   -0.193492    0.533124   -0.240132    0.214891
Si   -0.072266   -1.278539    0.007439    0.336161    0.000001   -0.034608
Si   -0.072266    1.278540    0.007440    0.336162   -0.000002   -0.034609
Mg   -1.965674   -0.000001   -0.292957   -1.010416    0.000003   -0.269088
Mg    2.400101    0.000001    0.408653   -1.010415   -0.000002   -0.269090
O    -0.266195   -0.000000   -1.181271   -0.121393   -0.000001    0.039758
O     0.318388   -0.000000    1.164176   -0.121401    0.000001    0.039760
10
* Frequency(16)  469.6603
O    -1.582663   -1.765000    0.122876    0.533127   -0.240135    0.214893
O    -1.582663    1.765000    0.122874    0.533125    0.240131    0.214893
O     1.461490   -1.819579   -0.171719    0.533125    0.240136    0.214891
O     1.461490    1.819579   -0.171717    0.533124   -0.240132    0.214891
Si   -0.038203   -1.278539    0.003932    0.336161    0.000001   -0.034608
Si   -0.038203    1.278539    0.003933    0.336162   -0.000002   -0.034609
Mg   -2.068059   -0.000000   -0.320224   -1.010416    0.000003   -0.269088
Mg    2.297716    0.000000    0.381386   -1.010415   -0.000002   -0.269090
O    -0.278495   -0.000000   -1.177242   -0.121393   -0.000001    0.039758
O     0.306087   -0.000000    1.168205   -0.121401    0.000001    0.039760
10
* Frequency(16)  469.6603
O    -1.522076   -1.792290    0.147298    0.533127   -0.240135    0.214893
O    -1.522076    1.792290    0.147296    0.533125    0.240131    0.214893
O     1.522077   -1.792289   -0.147298    0.533125    0.240136    0.214891
O     1.522077    1.792289   -0.147296    0.533124   -0.240132    0.214891
Si   -0.000000   -1.278539   -0.000001    0.336161    0.000001   -0.034608
Si    0.000000    1.278539   -0.000000    0.336162   -0.000002   -0.034609
Mg   -2.182887   -0.000000   -0.350804   -1.010416    0.000003   -0.269088
Mg    2.182887    0.000000    0.350806   -1.010415   -0.000002   -0.269090
O    -0.292291   -0.000000   -1.172724   -0.121393   -0.000001    0.039758
O     0.292290   -0.000000    1.172724   -0.121401    0.000001    0.039760
