10
* (null), Energy   -1000.0000000
O    -1.522076   -1.792290    0.147298    0.179483   -0.278869   -0.181781
O    -1.522076    1.792290    0.147296    0.179483    0.278868   -0.181782
O     1.522077   -1.792289   -0.147298    0.179482    0.278870   -0.181782
O     1.522077    1.792289   -0.147296    0.179482   -0.278869   -0.181782
Si   -0.000000   -1.278539   -0.000001    0.057152   -0.000000   -0.544095
Si    0.000000    1.278539   -0.000000    0.057153   -0.000000   -0.544096
Mg   -2.182887   -0.000000   -0.350804   -0.063616    0.000000    1.082862
Mg    2.182887    0.000000    0.350806   -0.063618    0.000000    1.082862
O    -0.292291   -0.000000   -1.172724   -0.362652   -0.000000   -0.326324
O     0.292290   -0.000000    1.172724   -0.362652    0.000000   -0.326324
10
* Frequency(6)  119.1267
O    -1.501679   -1.823982    0.126639    0.179483   -0.278869   -0.181781
O    -1.501679    1.823982    0.126637    0.179483    0.278868   -0.181782
O     1.542474   -1.760597   -0.167957    0.179482    0.278870   -0.181782
O     1.542474    1.760597   -0.167955    0.179482   -0.278869   -0.181782
Si    0.006495   -1.278539   -0.061834    0.057152   -0.000000   -0.544095
Si    0.006495    1.278539   -0.061834    0.057153   -0.000000   -0.544096
Mg   -2.190117   -0.000000   -0.227743   -0.063616    0.000000    1.082862
Mg    2.175657    0.000000    0.473867   -0.063618    0.000000    1.082862
O    -0.333505   -0.000000   -1.209809   -0.362652   -0.000000   -0.326324
O     0.251077   -0.000000    1.135639   -0.362652    0.000000   -0.326324
10
* Frequency(6)  119.1267
O    -1.483492   -1.852239    0.108220    0.179483   -0.278869   -0.181781
O    -1.483492    1.852239    0.108217    0.179483    0.278868   -0.181782
O     1.560661   -1.732339   -0.186377    0.179482    0.278870   -0.181782
O     1.560661    1.732340   -0.186375    0.179482   -0.278869   -0.181782
Si    0.012286   -1.278539   -0.116967    0.057152   -0.000000   -0.544095
Si    0.012287    1.278539   -0.116967    0.057153   -0.000000   -0.544096
Mg   -2.196563   -0.000000   -0.118017   -0.063616    0.000000    1.082862
Mg    2.169211    0.000000    0.583593   -0.063618    0.000000    1.082862
O    -0.370252   -0.000000   -1.242875   -0.362652   -0.000000   -0.326324
O     0.214329   -0.000000    1.102572   -0.362652    0.000000   -0.326324
10
* Frequency(6)  119.1267
O    -1.469486   -1.874001    0.094035    0.179483   -0.278869   -0.181781
O    -1.469486    1.874000    0.094032    0.179483    0.278868   -0.181782
O     1.574666   -1.710578   -0.200562    0.179482    0.278870   -0.181782
O     1.574666    1.710578   -0.200560    0.179482   -0.278869   -0.181782
Si    0.016746   -1.278539   -0.159425    0.057152   -0.000000   -0.544095
Si    0.016746    1.278539   -0.159425    0.057153   -0.000000   -0.544096
Mg   -2.201527    0.000000   -0.033517   -0.063616    0.000000    1.082862
Mg    2.164247    0.000000    0.668093   -0.063618    0.000000    1.082862
O    -0.398551   -0.000000   -1.268339   -0.362652   -0.000000   -0.326324
O     0.186030   -0.000000    1.077108   -0.362652    0.000000   -0.326324
10
* Frequency(6)  119.1267
O    -1.461180   -1.886907    0.085622    0.179483   -0.278869   -0.181781
O    -1.461179    1.886907    0.085619    0.179483    0.278868   -0.181782
O     1.582973   -1.697671   -0.208975    0.179482    0.278870   -0.181782
O     1.582973    1.697672   -0.208973    0.179482   -0.278869   -0.181782
Si    0.019391   -1.278539   -0.184607    0.057152   -0.000000   -0.544095
Si    0.019392    1.278539   -0.184606    0.057153   -0.000000   -0.544096
Mg   -2.204471    0.000000    0.016600   -0.063616    0.000000    1.082862
Mg    2.161302    0.000000    0.718210   -0.063618    0.000000    1.082862
O    -0.415335   -0.000000   -1.283442   -0.362652   -0.000000   -0.326324
O     0.169246   -0.000000    1.062005   -0.362652    0.000000   -0.326324
10
* Frequency(6)  119.1267
O    -1.459472   -1.889560    0.083892    0.179483   -0.278869   -0.181781
O    -1.459471    1.889560    0.083889    0.179483    0.278868   -0.181782
O     1.584681   -1.695018   -0.210705    0.179482    0.278870   -0.181782
O     1.584681    1.695019   -0.210702    0.179482   -0.278869   -0.181782
Si    0.019935   -1.278539   -0.189784    0.057152   -0.000000   -0.544095
Si    0.019935    1.278539   -0.189783    0.057153   -0.000000   -0.544096
Mg   -2.205076    0.000000    0.026903   -0.063616    0.000000    1.082862
Mg    2.160697    0.000000    0.728513   -0.063618    0.000000    1.082862
O    -0.418786   -0.000000   -1.286547   -0.362652   -0.000000   -0.326324
O     0.165796   -0.000000    1.058901   -0.362652    0.000000   -0.326324
10
* Frequency(6)  119.1267
O    -1.464548   -1.881673    0.089033    0.179483   -0.278869   -0.181781
O    -1.464548    1.881673    0.089031    0.179483    0.278868   -0.181782
O     1.579604   -1.702905   -0.205563    0.179482    0.278870   -0.181782
O     1.579604    1.702906   -0.205561    0.179482   -0.278869   -0.181782
Si    0.018318   -1.278539   -0.174394    0.057152   -0.000000   -0.544095
Si    0.018319    1.278539   -0.174394    0.057153   -0.000000   -0.544096
Mg   -2.203277    0.000000   -0.003725   -0.063616    0.000000    1.082862
Mg    2.162496    0.000000    0.697885   -0.063618    0.000000    1.082862
O    -0.408529   -0.000000   -1.277317   -0.362652   -0.000000   -0.326324
O     0.176053   -0.000000    1.068130   -0.362652    0.000000   -0.326324
10
* Frequency(6)  119.1267
O    -1.475859   -1.864099    0.100489    0.179483   -0.278869   -0.181781
O    -1.475858    1.864099    0.100486    0.179483    0.278868   -0.181782
O     1.568294   -1.720479   -0.194108    0.179482    0.278870   -0.181782
O     1.568294    1.720480   -0.194106    0.179482   -0.278869   -0.181782
Si    0.014717   -1.278539   -0.140107    0.057152   -0.000000   -0.544095
Si    0.014717    1.278539   -0.140107    0.057153   -0.000000   -0.544096
Mg   -2.199268   -0.000000   -0.071964   -0.063616    0.000000    1.082862
Mg    2.166505    0.000000    0.629646   -0.063618    0.000000    1.082862
O    -0.385675   -0.000000   -1.256753   -0.362652   -0.000000   -0.326324
O     0.198906   -0.000000    1.088694   -0.362652    0.000000   -0.326324
10
* Frequency(6)  119.1267
O    -1.492178   -1.838744    0.117017    0.179483   -0.278869   -0.181781
O    -1.492177    1.838744    0.117014    0.179483    0.278868   -0.181782
O     1.551975   -1.745834   -0.177580    0.179482    0.278870   -0.181782
O     1.551975    1.745835   -0.177578    0.179482   -0.278869   -0.181782
Si    0.009520   -1.278539   -0.090637    0.057152   -0.000000   -0.544095
Si    0.009521    1.278539   -0.090636    0.057153   -0.000000   -0.544096
Mg   -2.193484   -0.000000   -0.170419   -0.063616    0.000000    1.082862
Mg    2.172290    0.000000    0.531191   -0.063618    0.000000    1.082862
O    -0.352702   -0.000000   -1.227083   -0.362652   -0.000000   -0.326324
O     0.231879   -0.000000    1.118364   -0.362652    0.000000   -0.326324
10
* Frequency(6)  119.1267
O    -1.511737   -1.808355    0.136826    0.179483   -0.278869   -0.181781
O    -1.511736    1.808355    0.136824    0.179483    0.278868   -0.181782
O     1.532416   -1.776224   -0.157770    0.179482    0.278870   -0.181782
O     1.532416    1.776224   -0.157768    0.179482   -0.278869   -0.181782
Si    0.003292   -1.278539   -0.031345    0.057152   -0.000000   -0.544095
Si    0.003293    1.278539   -0.031344    0.057153   -0.000000   -0.544096
Mg   -2.186552   -0.000000   -0.288423   -0.063616    0.000000    1.082862
Mg    2.179222    0.000000    0.413187   -0.063618    0.000000    1.082862
O    -0.313183   -0.000000   -1.191523   -0.362652   -0.000000   -0.326324
O     0.271398   -0.000000    1.153925   -0.362652    0.000000   -0.326324
10
* Frequency(6)  119.1267
O    -1.532416   -1.776225    0.157770    0.179483   -0.278869   -0.181781
O    -1.532416    1.776225    0.157768    0.179483    0.278868   -0.181782
O     1.511737   -1.808354   -0.136826    0.179482    0.278870   -0.181782
O     1.511737    1.808354   -0.136824    0.179482   -0.278869   -0.181782
Si   -0.003292   -1.278539    0.031344    0.057152   -0.000000   -0.544095
Si   -0.003292    1.278539    0.031344    0.057153   -0.000000   -0.544096
Mg   -2.179222   -0.000000   -0.413186   -0.063616    0.000000    1.082862
Mg    2.186552    0.000000    0.288424   -0.063618    0.000000    1.082862
O    -0.271400   -0.000000   -1.153925   -0.362652   -0.000000   -0.326324
O     0.313182   -0.000000    1.191523   -0.362652    0.000000   -0.326324
10
* Frequency(6)  119.1267
O    -1.551975   -1.745835    0.177579    0.179483   -0.278869   -0.181781
O    -1.551974    1.745835    0.177577    0.179483    0.278868   -0.181782
O     1.492178   -1.838743   -0.117016    0.179482    0.278870   -0.181782
O     1.492178    1.838744   -0.117015    0.179482   -0.278869   -0.181782
Si   -0.009521   -1.278539    0.090636    0.057152   -0.000000   -0.544095
Si   -0.009520    1.278539    0.090636    0.057153   -0.000000   -0.544096
Mg   -2.172290   -0.000000   -0.531189   -0.063616    0.000000    1.082862
Mg    2.193485    0.000000    0.170421   -0.063618    0.000000    1.082862
O    -0.231880   -0.000000   -1.118364   -0.362652   -0.000000   -0.326324
O     0.352701   -0.000000    1.227083   -0.362652    0.000000   -0.326324
10
* Frequency(6)  119.1267
O    -1.568294   -1.720480    0.194107    0.179483   -0.278869   -0.181781
O    -1.568293    1.720480    0.194105    0.179483    0.278868   -0.181782
O     1.475859   -1.864099   -0.100489    0.179482    0.278870   -0.181782
O     1.475859    1.864099   -0.100487    0.179482   -0.278869   -0.181782
Si   -0.014717   -1.278539    0.140106    0.057152   -0.000000   -0.544095
Si   -0.014717    1.278539    0.140106    0.057153   -0.000000   -0.544096
Mg   -2.166506   -0.000000   -0.629645   -0.063616    0.000000    1.082862
Mg    2.199269    0.000000    0.071965   -0.063618    0.000000    1.082862
O    -0.198907   -0.000000   -1.088694   -0.362652   -0.000000   -0.326324
O     0.385674   -0.000000    1.256753   -0.362652    0.000000   -0.326324
10
* Frequency(6)  119.1267
O    -1.579604   -1.702907    0.205562    0.179483   -0.278869   -0.181781
O    -1.579604    1.702907    0.205561    0.179483    0.278868   -0.181782
O     1.464549   -1.881672   -0.089033    0.179482    0.278870   -0.181782
O     1.464549    1.881672   -0.089031    0.179482   -0.278869   -0.181782
Si   -0.018318   -1.278539    0.174393    0.057152   -0.000000   -0.544095
Si   -0.018318    1.278539    0.174394    0.057153   -0.000000   -0.544096
Mg   -2.162497   -0.000000   -0.697884   -0.063616    0.000000    1.082862
Mg    2.203278    0.000000    0.003726   -0.063618    0.000000    1.082862
O    -0.176054   -0.000000   -1.068130   -0.362652   -0.000000   -0.326324
O     0.408527   -0.000000    1.277317   -0.362652    0.000000   -0.326324
10
* Frequency(6)  119.1267
O    -1.584681   -1.695019    0.210704    0.179483   -0.278869   -0.181781
O    -1.584680    1.695019    0.210702    0.179483    0.278868   -0.181782
O     1.459472   -1.889560   -0.083892    0.179482    0.278870   -0.181782
O     1.459472    1.889560   -0.083890    0.179482   -0.278869   -0.181782
Si   -0.019935   -1.278539    0.189782    0.057152   -0.000000   -0.544095
Si   -0.019935    1.278539    0.189783    0.057153   -0.000000   -0.544096
Mg   -2.160698   -0.000000   -0.728511   -0.063616    0.000000    1.082862
Mg    2.205077    0.000000   -0.026902   -0.063618    0.000000    1.082862
O    -0.165797   -0.000000   -1.058901   -0.362652   -0.000000   -0.326324
O     0.418785   -0.000000    1.286547   -0.362652    0.000000   -0.326324
10
* Frequency(6)  119.1267
O    -1.582973   -1.697672    0.208974    0.179483   -0.278869   -0.181781
O    -1.582973    1.697672    0.208972    0.179483    0.278868   -0.181782
O     1.461180   -1.886906   -0.085621    0.179482    0.278870   -0.181782
O     1.461180    1.886907   -0.085619    0.179482   -0.278869   -0.181782
Si   -0.019391   -1.278539    0.184606    0.057152   -0.000000   -0.544095
Si   -0.019391    1.278539    0.184606    0.057153   -0.000000   -0.544096
Mg   -2.161303   -0.000000   -0.718209   -0.063616    0.000000    1.082862
Mg    2.204472    0.000000   -0.016599   -0.063618    0.000000    1.082862
O    -0.169247   -0.000000   -1.062005   -0.362652   -0.000000   -0.326324
O     0.415334   -0.000000    1.283442   -0.362652    0.000000   -0.326324
10
* Frequency(6)  119.1267
O    -1.574666   -1.710579    0.200561    0.179483   -0.278869   -0.181781
O    -1.574666    1.710579    0.200559    0.179483    0.278868   -0.181782
O     1.469487   -1.874000   -0.094034    0.179482    0.278870   -0.181782
O     1.469487    1.874000   -0.094033    0.179482   -0.278869   -0.181782
Si   -0.016746   -1.278539    0.159424    0.057152   -0.000000   -0.544095
Si   -0.016746    1.278539    0.159424    0.057153   -0.000000   -0.544096
Mg   -2.164247   -0.000000   -0.668092   -0.063616    0.000000    1.082862
Mg    2.201528    0.000000    0.033518   -0.063618    0.000000    1.082862
O    -0.186031   -0.000000   -1.077108   -0.362652   -0.000000   -0.326324
O     0.398550   -0.000000    1.268339   -0.362652    0.000000   -0.326324
10
* Frequency(6)  119.1267
O    -1.560661   -1.732340    0.186376    0.179483   -0.278869   -0.181781
O    -1.560660    1.732340    0.186374    0.179483    0.278868   -0.181782
O     1.483492   -1.852239   -0.108220    0.179482    0.278870   -0.181782
O     1.483492    1.852239   -0.108218    0.179482   -0.278869   -0.181782
Si   -0.012286   -1.278539    0.116966    0.057152   -0.000000   -0.544095
Si   -0.012286    1.278539    0.116966    0.057153   -0.000000   -0.544096
Mg   -2.169211   -0.000000   -0.583592   -0.063616    0.000000    1.082862
Mg    2.196563    0.000000    0.118018   -0.063618    0.000000    1.082862
O    -0.214330   -0.000000   -1.102573   -0.362652   -0.000000   -0.326324
O     0.370251   -0.000000    1.242875   -0.362652    0.000000   -0.326324
10
* Frequency(6)  119.1267
O    -1.542474   -1.760598    0.167956    0.179483   -0.278869   -0.181781
O    -1.542473    1.760598    0.167954    0.179483    0.278868   -0.181782
O     1.501679   -1.823981   -0.126639    0.179482    0.278870   -0.181782
O     1.501679    1.823981   -0.126638    0.179482   -0.278869   -0.181782
Si   -0.006495   -1.278539    0.061833    0.057152   -0.000000   -0.544095
Si   -0.006495    1.278539    0.061833    0.057153   -0.000000   -0.544096
Mg   -2.175658   -0.000000   -0.473866   -0.063616    0.000000    1.082862
Mg    2.190117    0.000000    0.227744   -0.063618    0.000000    1.082862
O    -0.251078   -0.000000   -1.135639   -0.362652   -0.000000   -0.326324
O     0.333504   -0.000000    1.209809   -0.362652    0.000000   -0.326324
10
* Frequency(6)  119.1267
O    -1.522076   -1.792290    0.147298    0.179483   -0.278869   -0.181781
O    -1.522076    1.792290    0.147296    0.179483    0.278868   -0.181782
O     1.522077   -1.792289   -0.147298    0.179482    0.278870   -0.181782
O     1.522077    1.792289   -0.147296    0.179482   -0.278869   -0.181782
Si   -0.000000   -1.278539   -0.000001    0.057152   -0.000000   -0.544095
Si    0.000000    1.278539   -0.000000    0.057153   -0.000000   -0.544096
Mg   -2.182887   -0.000000   -0.350804   -0.063616    0.000000    1.082862
Mg    2.182887    0.000000    0.350806   -0.063618    0.000000    1.082862
O    -0.292291   -0.000000   -1.172724   -0.362652   -0.000000   -0.326324
O     0.292290   -0.000000    1.172724   -0.362652    0.000000   -0.326324
