10
* (null), Energy   -1000.0000000
O    -1.522076   -1.792290    0.147298    0.707590    0.295284   -0.087073
O    -1.522076    1.792290    0.147296   -0.707574    0.295279    0.087071
O     1.522077   -1.792289   -0.147298    0.707593   -0.295285   -0.087073
O     1.522077    1.792289   -0.147296   -0.707573   -0.295278    0.087070
Si   -0.000000   -1.278539   -0.000001   -0.890688    0.000001    0.060768
Si    0.000000    1.278539   -0.000000    0.890665   -0.000000   -0.060767
Mg   -2.182887   -0.000000   -0.350804    0.000001   -0.106638    0.000000
Mg    2.182887    0.000000    0.350806    0.000000    0.106638    0.000000
O    -0.292291   -0.000000   -1.172724    0.000002   -0.027208    0.000001
O     0.292290   -0.000000    1.172724    0.000002    0.027207    0.000001
10
* Frequency(28) 1097.3649
O    -1.441662   -1.758732    0.137402    0.707590    0.295284   -0.087073
O    -1.602488    1.825847    0.157191   -0.707574    0.295279    0.087071
O     1.602491   -1.825846   -0.157193    0.707593   -0.295285   -0.087073
O     1.441665    1.758732   -0.137401   -0.707573   -0.295278    0.087070
Si   -0.101222   -1.278539    0.006905   -0.890688    0.000001    0.060768
Si    0.101220    1.278539   -0.006906    0.890665   -0.000000   -0.060767
Mg   -2.182887   -0.012119   -0.350804    0.000001   -0.106638    0.000000
Mg    2.182887    0.012119    0.350806    0.000000    0.106638    0.000000
O    -0.292291   -0.003092   -1.172724    0.000002   -0.027208    0.000001
O     0.292290    0.003092    1.172724    0.000002    0.027207    0.000001
10
* Frequency(28) 1097.3649
O    -1.369963   -1.728811    0.128579    0.707590    0.295284   -0.087073
O    -1.674186    1.855767    0.166014   -0.707574    0.295279    0.087071
O     1.674191   -1.855767   -0.166017    0.707593   -0.295285   -0.087073
O     1.369967    1.728812   -0.128578   -0.707573   -0.295278    0.087070
Si   -0.191475   -1.278539    0.013063   -0.890688    0.000001    0.060768
Si    0.191470    1.278539   -0.013063    0.890665   -0.000000   -0.060767
Mg   -2.182887   -0.022924   -0.350804    0.000001   -0.106638    0.000000
Mg    2.182887    0.022925    0.350806    0.000000    0.106638    0.000000
O    -0.292291   -0.005849   -1.172724    0.000002   -0.027208    0.000001
O     0.292290    0.005849    1.172724    0.000002    0.027207    0.000001
10
* Frequency(28) 1097.3649
O    -1.314747   -1.705769    0.121785    0.707590    0.295284   -0.087073
O    -1.729401    1.878809    0.172808   -0.707574    0.295279    0.087071
O     1.729407   -1.878809   -0.172811    0.707593   -0.295285   -0.087073
O     1.314752    1.705770   -0.121784   -0.707573   -0.295278    0.087070
Si   -0.260979   -1.278539    0.017805   -0.890688    0.000001    0.060768
Si    0.260972    1.278539   -0.017805    0.890665   -0.000000   -0.060767
Mg   -2.182887   -0.031246   -0.350804    0.000001   -0.106638    0.000000
Mg    2.182887    0.031246    0.350806    0.000000    0.106638    0.000000
O    -0.292291   -0.007973   -1.172724    0.000002   -0.027208    0.000001
O     0.292291    0.007972    1.172724    0.000002    0.027207    0.000001
10
* Frequency(28) 1097.3649
O    -1.281998   -1.692103    0.117755    0.707590    0.295284   -0.087073
O    -1.762149    1.892475    0.176838   -0.707574    0.295279    0.087071
O     1.762156   -1.892476   -0.176841    0.707593   -0.295285   -0.087073
O     1.282004    1.692104   -0.117754   -0.707573   -0.295278    0.087070
Si   -0.302202   -1.278539    0.020618   -0.890688    0.000001    0.060768
Si    0.302194    1.278539   -0.020618    0.890665   -0.000000   -0.060767
Mg   -2.182887   -0.036181   -0.350804    0.000001   -0.106638    0.000000
Mg    2.182887    0.036181    0.350806    0.000000    0.106638    0.000000
O    -0.292291   -0.009232   -1.172724    0.000002   -0.027208    0.000001
O     0.292291    0.009231    1.172724    0.000002    0.027207    0.000001
10
* Frequency(28) 1097.3649
O    -1.275266   -1.689293    0.116926    0.707590    0.295284   -0.087073
O    -1.768881    1.895284    0.177666   -0.707574    0.295279    0.087071
O     1.768888   -1.895285   -0.177670    0.707593   -0.295285   -0.087073
O     1.275272    1.689295   -0.116926   -0.707573   -0.295278    0.087070
Si   -0.310676   -1.278539    0.021196   -0.890688    0.000001    0.060768
Si    0.310668    1.278539   -0.021196    0.890665   -0.000000   -0.060767
Mg   -2.182887   -0.037196   -0.350804    0.000001   -0.106638    0.000000
Mg    2.182887    0.037196    0.350806    0.000000    0.106638    0.000000
O    -0.292291   -0.009491   -1.172724    0.000002   -0.027208    0.000001
O     0.292291    0.009490    1.172724    0.000002    0.027207    0.000001
10
* Frequency(28) 1097.3649
O    -1.295279   -1.697645    0.119389    0.707590    0.295284   -0.087073
O    -1.748868    1.886933    0.175204   -0.707574    0.295279    0.087071
O     1.748875   -1.886933   -0.175207    0.707593   -0.295285   -0.087073
O     1.295285    1.697647   -0.119388   -0.707573   -0.295278    0.087070
Si   -0.285484   -1.278539    0.019477   -0.890688    0.000001    0.060768
Si    0.285477    1.278539   -0.019477    0.890665   -0.000000   -0.060767
Mg   -2.182887   -0.034180   -0.350804    0.000001   -0.106638    0.000000
Mg    2.182887    0.034180    0.350806    0.000000    0.106638    0.000000
O    -0.292291   -0.008721   -1.172724    0.000002   -0.027208    0.000001
O     0.292291    0.008720    1.172724    0.000002    0.027207    0.000001
10
* Frequency(28) 1097.3649
O    -1.339869   -1.716253    0.124876    0.707590    0.295284   -0.087073
O    -1.704279    1.868325    0.169717   -0.707574    0.295279    0.087071
O     1.704284   -1.868325   -0.169720    0.707593   -0.295285   -0.087073
O     1.339874    1.716254   -0.124875   -0.707573   -0.295278    0.087070
Si   -0.229355   -1.278539    0.015648   -0.890688    0.000001    0.060768
Si    0.229349    1.278539   -0.015648    0.890665   -0.000000   -0.060767
Mg   -2.182887   -0.027460   -0.350804    0.000001   -0.106638    0.000000
Mg    2.182887    0.027460    0.350806    0.000000    0.106638    0.000000
O    -0.292291   -0.007006   -1.172724    0.000002   -0.027208    0.000001
O     0.292290    0.007006    1.172724    0.000002    0.027207    0.000001
10
* Frequency(28) 1097.3649
O    -1.404205   -1.743101    0.132793    0.707590    0.295284   -0.087073
O    -1.639945    1.841478    0.161800   -0.707574    0.295279    0.087071
O     1.639948   -1.841478   -0.161803    0.707593   -0.295285   -0.087073
O     1.404208    1.743101   -0.132792   -0.707573   -0.295278    0.087070
Si   -0.148372   -1.278539    0.010122   -0.890688    0.000001    0.060768
Si    0.148369    1.278539   -0.010123    0.890665   -0.000000   -0.060767
Mg   -2.182887   -0.017764   -0.350804    0.000001   -0.106638    0.000000
Mg    2.182887    0.017764    0.350806    0.000000    0.106638    0.000000
O    -0.292291   -0.004533   -1.172724    0.000002   -0.027208    0.000001
O     0.292290    0.004532    1.172724    0.000002    0.027207    0.000001
10
* Frequency(28) 1097.3649
O    -1.481313   -1.775279    0.142282    0.707590    0.295284   -0.087073
O    -1.562838    1.809300    0.152312   -0.707574    0.295279    0.087071
O     1.562840   -1.809299   -0.152314    0.707593   -0.295285   -0.087073
O     1.481315    1.775279   -0.142280   -0.707573   -0.295278    0.087070
Si   -0.051311   -1.278539    0.003500   -0.890688    0.000001    0.060768
Si    0.051310    1.278539   -0.003501    0.890665   -0.000000   -0.060767
Mg   -2.182887   -0.006143   -0.350804    0.000001   -0.106638    0.000000
Mg    2.182887    0.006143    0.350806    0.000000    0.106638    0.000000
O    -0.292291   -0.001568   -1.172724    0.000002   -0.027208    0.000001
O     0.292290    0.001567    1.172724    0.000002    0.027207    0.000001
10
* Frequency(28) 1097.3649
O    -1.562839   -1.809301    0.152314    0.707590    0.295284   -0.087073
O    -1.481314    1.775279    0.142280   -0.707574    0.295279    0.087071
O     1.481313   -1.775278   -0.142282    0.707593   -0.295285   -0.087073
O     1.562839    1.809300   -0.152312   -0.707573   -0.295278    0.087070
Si    0.051311   -1.278539   -0.003501   -0.890688    0.000001    0.060768
Si   -0.051309    1.278539    0.003500    0.890665   -0.000000   -0.060767
Mg   -2.182887    0.006143   -0.350804    0.000001   -0.106638    0.000000
Mg    2.182887   -0.006143    0.350806    0.000000    0.106638    0.000000
O    -0.292291    0.001567   -1.172724    0.000002   -0.027208    0.000001
O     0.292290   -0.001568    1.172724    0.000002    0.027207    0.000001
10
* Frequency(28) 1097.3649
O    -1.639948   -1.841479    0.161803    0.707590    0.295284   -0.087073
O    -1.404207    1.743102    0.132791   -0.707574    0.295279    0.087071
O     1.404205   -1.743100   -0.132793    0.707593   -0.295285   -0.087073
O     1.639945    1.841477   -0.161800   -0.707573   -0.295278    0.087070
Si    0.148372   -1.278539   -0.010123   -0.890688    0.000001    0.060768
Si   -0.148368    1.278539    0.010122    0.890665   -0.000000   -0.060767
Mg   -2.182887    0.017764   -0.350804    0.000001   -0.106638    0.000000
Mg    2.182887   -0.017764    0.350806    0.000000    0.106638    0.000000
O    -0.292291    0.004532   -1.172724    0.000002   -0.027208    0.000001
O     0.292290   -0.004532    1.172724    0.000002    0.027207    0.000001
10
* Frequency(28) 1097.3649
O    -1.704283   -1.868326    0.169720    0.707590    0.295284   -0.087073
O    -1.339873    1.716254    0.124875   -0.707574    0.295279    0.087071
O     1.339869   -1.716252   -0.124876    0.707593   -0.295285   -0.087073
O     1.704279    1.868324   -0.169717   -0.707573   -0.295278    0.087070
Si    0.229355   -1.278539   -0.015649   -0.890688    0.000001    0.060768
Si   -0.229349    1.278539    0.015647    0.890665   -0.000000   -0.060767
Mg   -2.182887    0.027460   -0.350804    0.000001   -0.106638    0.000000
Mg    2.182887   -0.027460    0.350806    0.000000    0.106638    0.000000
O    -0.292292    0.007006   -1.172724    0.000002   -0.027208    0.000001
O     0.292290   -0.007006    1.172723    0.000002    0.027207    0.000001
10
* Frequency(28) 1097.3649
O    -1.748874   -1.886934    0.175207    0.707590    0.295284   -0.087073
O    -1.295284    1.697647    0.119388   -0.707574    0.295279    0.087071
O     1.295278   -1.697644   -0.119389    0.707593   -0.295285   -0.087073
O     1.748868    1.886932   -0.175204   -0.707573   -0.295278    0.087070
Si    0.285484   -1.278540   -0.019478   -0.890688    0.000001    0.060768
Si   -0.285476    1.278539    0.019477    0.890665   -0.000000   -0.060767
Mg   -2.182887    0.034180   -0.350804    0.000001   -0.106638    0.000000
Mg    2.182887   -0.034180    0.350806    0.000000    0.106638    0.000000
O    -0.292292    0.008720   -1.172724    0.000002   -0.027208    0.000001
O     0.292290   -0.008721    1.172723    0.000002    0.027207    0.000001
10
* Frequency(28) 1097.3649
O    -1.768887   -1.895286    0.177669    0.707590    0.295284   -0.087073
O    -1.275271    1.689295    0.116925   -0.707574    0.295279    0.087071
O     1.275265   -1.689292   -0.116927    0.707593   -0.295285   -0.087073
O     1.768881    1.895284   -0.177667   -0.707573   -0.295278    0.087070
Si    0.310676   -1.278540   -0.021197   -0.890688    0.000001    0.060768
Si   -0.310668    1.278539    0.021195    0.890665   -0.000000   -0.060767
Mg   -2.182887    0.037196   -0.350804    0.000001   -0.106638    0.000000
Mg    2.182887   -0.037196    0.350806    0.000000    0.106638    0.000000
O    -0.292292    0.009490   -1.172724    0.000002   -0.027208    0.000001
O     0.292290   -0.009490    1.172723    0.000002    0.027207    0.000001
10
* Frequency(28) 1097.3649
O    -1.762155   -1.892477    0.176841    0.707590    0.295284   -0.087073
O    -1.282003    1.692105    0.117754   -0.707574    0.295279    0.087071
O     1.281997   -1.692102   -0.117755    0.707593   -0.295285   -0.087073
O     1.762149    1.892474   -0.176838   -0.707573   -0.295278    0.087070
Si    0.302202   -1.278540   -0.020619   -0.890688    0.000001    0.060768
Si   -0.302194    1.278539    0.020617    0.890665   -0.000000   -0.060767
Mg   -2.182887    0.036181   -0.350804    0.000001   -0.106638    0.000000
Mg    2.182887   -0.036181    0.350806    0.000000    0.106638    0.000000
O    -0.292292    0.009231   -1.172724    0.000002   -0.027208    0.000001
O     0.292290   -0.009231    1.172723    0.000002    0.027207    0.000001
10
* Frequency(28) 1097.3649
O    -1.729406   -1.878810    0.172811    0.707590    0.295284   -0.087073
O    -1.314751    1.705771    0.121783   -0.707574    0.295279    0.087071
O     1.314746   -1.705768   -0.121785    0.707593   -0.295285   -0.087073
O     1.729401    1.878808   -0.172808   -0.707573   -0.295278    0.087070
Si    0.260979   -1.278540   -0.017806   -0.890688    0.000001    0.060768
Si   -0.260972    1.278539    0.017805    0.890665   -0.000000   -0.060767
Mg   -2.182887    0.031246   -0.350804    0.000001   -0.106638    0.000000
Mg    2.182887   -0.031246    0.350806    0.000000    0.106638    0.000000
O    -0.292292    0.007972   -1.172724    0.000002   -0.027208    0.000001
O     0.292290   -0.007972    1.172723    0.000002    0.027207    0.000001
10
* Frequency(28) 1097.3649
O    -1.674190   -1.855768    0.166016    0.707590    0.295284   -0.087073
O    -1.369965    1.728812    0.128578   -0.707574    0.295279    0.087071
O     1.369962   -1.728810   -0.128580    0.707593   -0.295285   -0.087073
O     1.674187    1.855766   -0.166014   -0.707573   -0.295278    0.087070
Si    0.191475   -1.278539   -0.013064   -0.890688    0.000001    0.060768
Si   -0.191470    1.278539    0.013063    0.890665   -0.000000   -0.060767
Mg   -2.182887    0.022924   -0.350804    0.000001   -0.106638    0.000000
Mg    2.182887   -0.022924    0.350806    0.000000    0.106638    0.000000
O    -0.292292    0.005849   -1.172724    0.000002   -0.027208    0.000001
O     0.292290   -0.005849    1.172724    0.000002    0.027207    0.000001
10
* Frequency(28) 1097.3649
O    -1.602490   -1.825847    0.157193    0.707590    0.295284   -0.087073
O    -1.441664    1.758733    0.137401   -0.707574    0.295279    0.087071
O     1.441662   -1.758731   -0.137403    0.707593   -0.295285   -0.087073
O     1.602489    1.825846   -0.157191   -0.707573   -0.295278    0.087070
Si    0.101222   -1.278539   -0.006907   -0.890688    0.000001    0.060768
Si   -0.101219    1.278539    0.006906    0.890665   -0.000000   -0.060767
Mg   -2.182887    0.012119   -0.350804    0.000001   -0.106638    0.000000
Mg    2.182887   -0.012119    0.350806    0.000000    0.106638    0.000000
O    -0.292291    0.003092   -1.172724    0.000002   -0.027208    0.000001
O     0.292290   -0.003092    1.172724    0.000002    0.027207    0.000001
10
* Frequency(28) 1097.3649
O    -1.522076   -1.792290    0.147298    0.707590    0.295284   -0.087073
O    -1.522076    1.792290    0.147296   -0.707574    0.295279    0.087071
O     1.522077   -1.792289   -0.147298    0.707593   -0.295285   -0.087073
O     1.522077    1.792289   -0.147296   -0.707573   -0.295278    0.087070
Si   -0.000000   -1.278539   -0.000001   -0.890688    0.000001    0.060768
Si    0.000000    1.278539   -0.000000    0.890665   -0.000000   -0.060767
Mg   -2.182887   -0.000000   -0.350804    0.000001   -0.106638    0.000000
Mg    2.182887    0.000000    0.350806    0.000000    0.106638    0.000000
O    -0.292291   -0.000000   -1.172724    0.000002   -0.027208    0.000001
O     0.292290   -0.000000    1.172724    0.000002    0.027207    0.000001
