10
* (null), Energy   -1000.0000000
O    -1.522076   -1.792290    0.147298   -0.767471   -0.416995    0.106223
O    -1.522076    1.792290    0.147296   -0.767476    0.416998    0.106222
O     1.522077   -1.792289   -0.147298    0.767470   -0.416994   -0.106222
O     1.522077    1.792289   -0.147296    0.767477    0.416997   -0.106222
Si   -0.000000   -1.278539   -0.000001    0.000001    0.640185   -0.000001
Si    0.000000    1.278539   -0.000000   -0.000001   -0.640187   -0.000000
Mg   -2.182887   -0.000000   -0.350804    0.168295    0.000000   -0.011891
Mg    2.182887    0.000000    0.350806   -0.168294   -0.000000    0.011890
O    -0.292291   -0.000000   -1.172724    0.001608   -0.000001    0.115440
O     0.292290   -0.000000    1.172724   -0.001608   -0.000001   -0.115438
10
* Frequency(27)  914.9622
O    -1.609295   -1.839679    0.159370   -0.767471   -0.416995    0.106223
O    -1.609296    1.839679    0.159367   -0.767476    0.416998    0.106222
O     1.609295   -1.839678   -0.159370    0.767470   -0.416994   -0.106222
O     1.609296    1.839679   -0.159368    0.767477    0.416997   -0.106222
Si    0.000000   -1.205786   -0.000001    0.000001    0.640185   -0.000001
Si    0.000000    1.205785   -0.000000   -0.000001   -0.640187   -0.000000
Mg   -2.163761   -0.000000   -0.352156    0.168295    0.000000   -0.011891
Mg    2.163761    0.000000    0.352157   -0.168294   -0.000000    0.011890
O    -0.292108   -0.000000   -1.159605    0.001608   -0.000001    0.115440
O     0.292107   -0.000000    1.159605   -0.001608   -0.000001   -0.115438
10
* Frequency(27)  914.9622
O    -1.687063   -1.881933    0.170133   -0.767471   -0.416995    0.106223
O    -1.687064    1.881934    0.170131   -0.767476    0.416998    0.106222
O     1.687063   -1.881932   -0.170133    0.767470   -0.416994   -0.106222
O     1.687065    1.881933   -0.170131    0.767477    0.416997   -0.106222
Si    0.000000   -1.140916   -0.000001    0.000001    0.640185   -0.000001
Si    0.000000    1.140915   -0.000000   -0.000001   -0.640187   -0.000000
Mg   -2.146708    0.000000   -0.353360    0.168295    0.000000   -0.011891
Mg    2.146708    0.000000    0.353362   -0.168294   -0.000000    0.011890
O    -0.291946   -0.000001   -1.147907    0.001608   -0.000001    0.115440
O     0.291944   -0.000000    1.147907   -0.001608   -0.000001   -0.115438
10
* Frequency(27)  914.9622
O    -1.746952   -1.914473    0.178422   -0.767471   -0.416995    0.106223
O    -1.746953    1.914473    0.178420   -0.767476    0.416998    0.106222
O     1.746951   -1.914471   -0.178422    0.767470   -0.416994   -0.106222
O     1.746954    1.914473   -0.178420    0.767477    0.416997   -0.106222
Si    0.000000   -1.090960   -0.000001    0.000001    0.640185   -0.000001
Si    0.000000    1.090959   -0.000000   -0.000001   -0.640187   -0.000000
Mg   -2.133575    0.000000   -0.354288    0.168295    0.000000   -0.011891
Mg    2.133575    0.000000    0.354290   -0.168294   -0.000000    0.011890
O    -0.291820   -0.000001   -1.138899    0.001608   -0.000001    0.115440
O     0.291819   -0.000000    1.138899   -0.001608   -0.000001   -0.115438
10
* Frequency(27)  914.9622
O    -1.782472   -1.933772    0.183338   -0.767471   -0.416995    0.106223
O    -1.782473    1.933773    0.183336   -0.767476    0.416998    0.106222
O     1.782471   -1.933770   -0.183338    0.767470   -0.416994   -0.106222
O     1.782474    1.933772   -0.183336    0.767477    0.416997   -0.106222
Si    0.000000   -1.061331   -0.000001    0.000001    0.640185   -0.000001
Si   -0.000000    1.061330   -0.000000   -0.000001   -0.640187   -0.000000
Mg   -2.125786    0.000000   -0.354839    0.168295    0.000000   -0.011891
Mg    2.125786    0.000000    0.354840   -0.168294   -0.000000    0.011890
O    -0.291746   -0.000001   -1.133556    0.001608   -0.000001    0.115440
O     0.291745   -0.000000    1.133557   -0.001608   -0.000001   -0.115438
10
* Frequency(27)  914.9622
O    -1.789774   -1.937740    0.184349   -0.767471   -0.416995    0.106223
O    -1.789775    1.937740    0.184346   -0.767476    0.416998    0.106222
O     1.789773   -1.937738   -0.184349    0.767470   -0.416994   -0.106222
O     1.789776    1.937740   -0.184347    0.767477    0.416997   -0.106222
Si    0.000000   -1.055240   -0.000001    0.000001    0.640185   -0.000001
Si   -0.000000    1.055239   -0.000000   -0.000001   -0.640187   -0.000000
Mg   -2.124185    0.000000   -0.354952    0.168295    0.000000   -0.011891
Mg    2.124185    0.000000    0.354953   -0.168294   -0.000000    0.011890
O    -0.291730   -0.000001   -1.132458    0.001608   -0.000001    0.115440
O     0.291729   -0.000000    1.132458   -0.001608   -0.000001   -0.115438
10
* Frequency(27)  914.9622
O    -1.768067   -1.925945    0.181344   -0.767471   -0.416995    0.106223
O    -1.768068    1.925946    0.181342   -0.767476    0.416998    0.106222
O     1.768066   -1.925944   -0.181344    0.767470   -0.416994   -0.106222
O     1.768069    1.925946   -0.181342    0.767477    0.416997   -0.106222
Si    0.000000   -1.073347   -0.000001    0.000001    0.640185   -0.000001
Si    0.000000    1.073346   -0.000000   -0.000001   -0.640187   -0.000000
Mg   -2.128945    0.000000   -0.354615    0.168295    0.000000   -0.011891
Mg    2.128945    0.000000    0.354617   -0.168294   -0.000000    0.011890
O    -0.291776   -0.000001   -1.135723    0.001608   -0.000001    0.115440
O     0.291775   -0.000000    1.135723   -0.001608   -0.000001   -0.115438
10
* Frequency(27)  914.9622
O    -1.719703   -1.899668    0.174651   -0.767471   -0.416995    0.106223
O    -1.719703    1.899668    0.174648   -0.767476    0.416998    0.106222
O     1.719703   -1.899666   -0.174651    0.767470   -0.416994   -0.106222
O     1.719704    1.899668   -0.174649    0.767477    0.416997   -0.106222
Si    0.000000   -1.113689   -0.000001    0.000001    0.640185   -0.000001
Si    0.000000    1.113689   -0.000000   -0.000001   -0.640187   -0.000000
Mg   -2.139551    0.000000   -0.353866    0.168295    0.000000   -0.011891
Mg    2.139551    0.000000    0.353867   -0.168294   -0.000000    0.011890
O    -0.291877   -0.000001   -1.142998    0.001608   -0.000001    0.115440
O     0.291876   -0.000000    1.142998   -0.001608   -0.000001   -0.115438
10
* Frequency(27)  914.9622
O    -1.649923   -1.861754    0.164993   -0.767471   -0.416995    0.106223
O    -1.649923    1.861754    0.164990   -0.767476    0.416998    0.106222
O     1.649923   -1.861752   -0.164993    0.767470   -0.416994   -0.106222
O     1.649924    1.861753   -0.164991    0.767477    0.416997   -0.106222
Si    0.000000   -1.171896   -0.000001    0.000001    0.640185   -0.000001
Si    0.000000    1.171896   -0.000000   -0.000001   -0.640187   -0.000000
Mg   -2.154852   -0.000000   -0.352785    0.168295    0.000000   -0.011891
Mg    2.154852    0.000000    0.352786   -0.168294   -0.000000    0.011890
O    -0.292023   -0.000001   -1.153494    0.001608   -0.000001    0.115440
O     0.292022   -0.000000    1.153494   -0.001608   -0.000001   -0.115438
10
* Frequency(27)  914.9622
O    -1.566289   -1.816312    0.153417   -0.767471   -0.416995    0.106223
O    -1.566289    1.816312    0.153415   -0.767476    0.416998    0.106222
O     1.566289   -1.816311   -0.153417    0.767470   -0.416994   -0.106222
O     1.566290    1.816312   -0.153415    0.767477    0.416997   -0.106222
Si    0.000000   -1.241659   -0.000001    0.000001    0.640185   -0.000001
Si    0.000000    1.241659   -0.000000   -0.000001   -0.640187   -0.000000
Mg   -2.173192   -0.000000   -0.351489    0.168295    0.000000   -0.011891
Mg    2.173192    0.000000    0.351491   -0.168294   -0.000000    0.011890
O    -0.292199   -0.000000   -1.166074    0.001608   -0.000001    0.115440
O     0.292197   -0.000000    1.166073   -0.001608   -0.000001   -0.115438
10
* Frequency(27)  914.9622
O    -1.477864   -1.768267    0.141179   -0.767471   -0.416995    0.106223
O    -1.477863    1.768267    0.141176   -0.767476    0.416998    0.106222
O     1.477864   -1.768266   -0.141179    0.767470   -0.416994   -0.106222
O     1.477864    1.768267   -0.141177    0.767477    0.416997   -0.106222
Si   -0.000000   -1.315419   -0.000000    0.000001    0.640185   -0.000001
Si    0.000000    1.315419   -0.000000   -0.000001   -0.640187   -0.000000
Mg   -2.192582   -0.000000   -0.350119    0.168295    0.000000   -0.011891
Mg    2.192582    0.000000    0.350121   -0.168294   -0.000000    0.011890
O    -0.292384   -0.000000   -1.179374    0.001608   -0.000001    0.115440
O     0.292383   -0.000000    1.179374   -0.001608   -0.000001   -0.115438
10
* Frequency(27)  914.9622
O    -1.394230   -1.722826    0.129603   -0.767471   -0.416995    0.106223
O    -1.394228    1.722826    0.129601   -0.767476    0.416998    0.106222
O     1.394230   -1.722825   -0.129603    0.767470   -0.416994   -0.106222
O     1.394229    1.722825   -0.129601    0.767477    0.416997   -0.106222
Si   -0.000000   -1.385182   -0.000000    0.000001    0.640185   -0.000001
Si    0.000000    1.385183   -0.000000   -0.000001   -0.640187   -0.000000
Mg   -2.210922   -0.000000   -0.348823    0.168295    0.000000   -0.011891
Mg    2.210922    0.000000    0.348825   -0.168294   -0.000000    0.011890
O    -0.292559   -0.000000   -1.191954    0.001608   -0.000001    0.115440
O     0.292558   -0.000000    1.191954   -0.001608   -0.000001   -0.115438
10
* Frequency(27)  914.9622
O    -1.324450   -1.684912    0.119945   -0.767471   -0.416995    0.106223
O    -1.324448    1.684911    0.119943   -0.767476    0.416998    0.106222
O     1.324451   -1.684911   -0.119946    0.767470   -0.416994   -0.106222
O     1.324449    1.684911   -0.119944    0.767477    0.416997   -0.106222
Si   -0.000000   -1.443389   -0.000000    0.000001    0.640185   -0.000001
Si    0.000000    1.443390   -0.000000   -0.000001   -0.640187   -0.000000
Mg   -2.226224   -0.000000   -0.347742    0.168295    0.000000   -0.011891
Mg    2.226223    0.000000    0.347744   -0.168294   -0.000000    0.011890
O    -0.292705    0.000000   -1.202450    0.001608   -0.000001    0.115440
O     0.292704   -0.000000    1.202449   -0.001608   -0.000001   -0.115438
10
* Frequency(27)  914.9622
O    -1.276086   -1.658634    0.113251   -0.767471   -0.416995    0.106223
O    -1.276084    1.658633    0.113249   -0.767476    0.416998    0.106222
O     1.276087   -1.658634   -0.113252    0.767470   -0.416994   -0.106222
O     1.276084    1.658633   -0.113250    0.767477    0.416997   -0.106222
Si   -0.000000   -1.483732   -0.000000    0.000001    0.640185   -0.000001
Si    0.000000    1.483732   -0.000000   -0.000001   -0.640187   -0.000000
Mg   -2.236829   -0.000000   -0.346993    0.168295    0.000000   -0.011891
Mg    2.236829    0.000000    0.346994   -0.168294   -0.000000    0.011890
O    -0.292807    0.000000   -1.209725    0.001608   -0.000001    0.115440
O     0.292805   -0.000000    1.209724   -0.001608   -0.000001   -0.115438
10
* Frequency(27)  914.9622
O    -1.254379   -1.646840    0.110247   -0.767471   -0.416995    0.106223
O    -1.254377    1.646839    0.110245   -0.767476    0.416998    0.106222
O     1.254380   -1.646839   -0.110247    0.767470   -0.416994   -0.106222
O     1.254377    1.646839   -0.110245    0.767477    0.416997   -0.106222
Si   -0.000000   -1.501839   -0.000000    0.000001    0.640185   -0.000001
Si    0.000000    1.501839   -0.000000   -0.000001   -0.640187   -0.000000
Mg   -2.241589   -0.000000   -0.346657    0.168295    0.000000   -0.011891
Mg    2.241589    0.000000    0.346658   -0.168294   -0.000000    0.011890
O    -0.292852    0.000000   -1.212990    0.001608   -0.000001    0.115440
O     0.292851   -0.000000    1.212989   -0.001608   -0.000001   -0.115438
10
* Frequency(27)  914.9622
O    -1.261681   -1.650807    0.111258   -0.767471   -0.416995    0.106223
O    -1.261679    1.650807    0.111256   -0.767476    0.416998    0.106222
O     1.261682   -1.650807   -0.111258    0.767470   -0.416994   -0.106222
O     1.261679    1.650806   -0.111256    0.767477    0.416997   -0.106222
Si   -0.000000   -1.495748   -0.000000    0.000001    0.640185   -0.000001
Si    0.000000    1.495748   -0.000000   -0.000001   -0.640187   -0.000000
Mg   -2.239988   -0.000000   -0.346770    0.168295    0.000000   -0.011891
Mg    2.239988    0.000000    0.346771   -0.168294   -0.000000    0.011890
O    -0.292837    0.000000   -1.211891    0.001608   -0.000001    0.115440
O     0.292836   -0.000000    1.211891   -0.001608   -0.000001   -0.115438
10
* Frequency(27)  914.9622
O    -1.297201   -1.670107    0.116174   -0.767471   -0.416995    0.106223
O    -1.297199    1.670106    0.116172   -0.767476    0.416998    0.106222
O     1.297202   -1.670106   -0.116174    0.767470   -0.416994   -0.106222
O     1.297200    1.670106   -0.116172    0.767477    0.416997   -0.106222
Si   -0.000000   -1.466119   -0.000000    0.000001    0.640185   -0.000001
Si    0.000000    1.466119   -0.000000   -0.000001   -0.640187   -0.000000
Mg   -2.232199   -0.000000   -0.347320    0.168295    0.000000   -0.011891
Mg    2.232199    0.000000    0.347322   -0.168294   -0.000000    0.011890
O    -0.292762    0.000000   -1.206549    0.001608   -0.000001    0.115440
O     0.292761   -0.000000    1.206548   -0.001608   -0.000001   -0.115438
10
* Frequency(27)  914.9622
O    -1.357090   -1.702646    0.124463   -0.767471   -0.416995    0.106223
O    -1.357088    1.702646    0.124461   -0.767476    0.416998    0.106222
O     1.357090   -1.702646   -0.124463    0.767470   -0.416994   -0.106222
O     1.357089    1.702645   -0.124461    0.767477    0.416997   -0.106222
Si   -0.000000   -1.416163   -0.000000    0.000001    0.640185   -0.000001
Si    0.000000    1.416163   -0.000000   -0.000001   -0.640187   -0.000000
Mg   -2.219066   -0.000000   -0.348248    0.168295    0.000000   -0.011891
Mg    2.219066    0.000000    0.348249   -0.168294   -0.000000    0.011890
O    -0.292637    0.000000   -1.197540    0.001608   -0.000001    0.115440
O     0.292636   -0.000000    1.197540   -0.001608   -0.000001   -0.115438
10
* Frequency(27)  914.9622
O    -1.434857   -1.744900    0.135226   -0.767471   -0.416995    0.106223
O    -1.434856    1.744900    0.135224   -0.767476    0.416998    0.106222
O     1.434858   -1.744900   -0.135227    0.767470   -0.416994   -0.106222
O     1.434857    1.744900   -0.135225    0.767477    0.416997   -0.106222
Si   -0.000000   -1.351293   -0.000000    0.000001    0.640185   -0.000001
Si    0.000000    1.351293   -0.000000   -0.000001   -0.640187   -0.000000
Mg   -2.202013   -0.000000   -0.349453    0.168295    0.000000   -0.011891
Mg    2.202013    0.000000    0.349454   -0.168294   -0.000000    0.011890
O    -0.292474   -0.000000   -1.185843    0.001608   -0.000001    0.115440
O     0.292473   -0.000000    1.185843   -0.001608   -0.000001   -0.115438
10
* Frequency(27)  914.9622
O    -1.522076   -1.792290    0.147298   -0.767471   -0.416995    0.106223
O    -1.522076    1.792290    0.147296   -0.767476    0.416998    0.106222
O     1.522077   -1.792289   -0.147298    0.767470   -0.416994   -0.106222
O     1.522077    1.792289   -0.147296    0.767477    0.416997   -0.106222
Si   -0.000000   -1.278539   -0.000001    0.000001    0.640185   -0.000001
Si    0.000000    1.278539   -0.000000   -0.000001   -0.640187   -0.000000
Mg   -2.182887   -0.000000   -0.350804    0.168295    0.000000   -0.011891
Mg    2.182887    0.000000    0.350806   -0.168294   -0.000000    0.011890
O    -0.292291   -0.000000   -1.172724    0.001608   -0.000001    0.115440
O     0.292290   -0.000000    1.172724   -0.001608   -0.000001   -0.115438
