10
* (null), Energy   -1000.0000000
O    -1.522076   -1.792290    0.147298   -0.028606   -0.442726    0.389522
O    -1.522076    1.792290    0.147296   -0.028609    0.442720    0.389520
O     1.522077   -1.792289   -0.147298    0.028604   -0.442727   -0.389524
O     1.522077    1.792289   -0.147296    0.028608    0.442721   -0.389521
Si   -0.000000   -1.278539   -0.000001   -0.000000   -0.308574    0.000000
Si    0.000000    1.278539   -0.000000   -0.000000    0.308573    0.000000
Mg   -2.182887   -0.000000   -0.350804   -0.641634    0.000003   -0.157484
Mg    2.182887    0.000000    0.350806    0.641635    0.000003    0.157486
O    -0.292291   -0.000000   -1.172724    0.873275    0.000002    0.092622
O     0.292290   -0.000000    1.172724   -0.873273    0.000002   -0.092622
10
* Frequency(18)  535.0548
O    -1.525327   -1.842603    0.191565   -0.028606   -0.442726    0.389522
O    -1.525327    1.842602    0.191563   -0.028609    0.442720    0.389520
O     1.525327   -1.842602   -0.191565    0.028604   -0.442727   -0.389524
O     1.525328    1.842602   -0.191563    0.028608    0.442721   -0.389521
Si   -0.000000   -1.313607   -0.000000   -0.000000   -0.308574    0.000000
Si    0.000000    1.313607   -0.000000   -0.000000    0.308573    0.000000
Mg   -2.255806    0.000000   -0.368702   -0.641634    0.000003   -0.157484
Mg    2.255806    0.000001    0.368703    0.641635    0.000003    0.157486
O    -0.193048   -0.000000   -1.162198    0.873275    0.000002    0.092622
O     0.193047   -0.000000    1.162198   -0.873273    0.000002   -0.092622
10
* Frequency(18)  535.0548
O    -1.528226   -1.887464    0.231035   -0.028606   -0.442726    0.389522
O    -1.528226    1.887463    0.231032   -0.028609    0.442720    0.389520
O     1.528226   -1.887464   -0.231036    0.028604   -0.442727   -0.389524
O     1.528227    1.887463   -0.231033    0.028608    0.442721   -0.389521
Si   -0.000000   -1.344875   -0.000000   -0.000000   -0.308574    0.000000
Si    0.000000    1.344875   -0.000000   -0.000000    0.308573    0.000000
Mg   -2.320822    0.000001   -0.384659   -0.641634    0.000003   -0.157484
Mg    2.320822    0.000001    0.384661    0.641635    0.000003    0.157486
O    -0.104559    0.000000   -1.152812    0.873275    0.000002    0.092622
O     0.104559    0.000000    1.152812   -0.873273    0.000002   -0.092622
10
* Frequency(18)  535.0548
O    -1.530458   -1.922012    0.261431   -0.028606   -0.442726    0.389522
O    -1.530459    1.922010    0.261428   -0.028609    0.442720    0.389520
O     1.530458   -1.922011   -0.261432    0.028604   -0.442727   -0.389524
O     1.530459    1.922010   -0.261429    0.028608    0.442721   -0.389521
Si   -0.000000   -1.368954   -0.000000   -0.000000   -0.308574    0.000000
Si    0.000000    1.368954   -0.000000   -0.000000    0.308573    0.000000
Mg   -2.370891    0.000001   -0.396948   -0.641634    0.000003   -0.157484
Mg    2.370892    0.000001    0.396950    0.641635    0.000003    0.157486
O    -0.036414    0.000000   -1.145585    0.873275    0.000002    0.092622
O     0.036414    0.000000    1.145585   -0.873273    0.000002   -0.092622
10
* Frequency(18)  535.0548
O    -1.531782   -1.942502    0.279459   -0.028606   -0.442726    0.389522
O    -1.531783    1.942500    0.279456   -0.028609    0.442720    0.389520
O     1.531782   -1.942501   -0.279460    0.028604   -0.442727   -0.389524
O     1.531783    1.942500   -0.279457    0.028608    0.442721   -0.389521
Si   -0.000000   -1.383235   -0.000000   -0.000000   -0.308574    0.000000
Si    0.000000    1.383235   -0.000000   -0.000000    0.308573    0.000000
Mg   -2.400587    0.000001   -0.404237   -0.641634    0.000003   -0.157484
Mg    2.400588    0.000001    0.404239    0.641635    0.000003    0.157486
O     0.004002    0.000000   -1.141298    0.873275    0.000002    0.092622
O    -0.004003    0.000000    1.141298   -0.873273    0.000002   -0.092622
10
* Frequency(18)  535.0548
O    -1.532054   -1.946714    0.283165   -0.028606   -0.442726    0.389522
O    -1.532055    1.946712    0.283162   -0.028609    0.442720    0.389520
O     1.532054   -1.946714   -0.283166    0.028604   -0.442727   -0.389524
O     1.532055    1.946712   -0.283163    0.028608    0.442721   -0.389521
Si   -0.000000   -1.386171   -0.000000   -0.000000   -0.308574    0.000000
Si    0.000000    1.386171   -0.000000   -0.000000    0.308573    0.000000
Mg   -2.406692    0.000001   -0.405735   -0.641634    0.000003   -0.157484
Mg    2.406692    0.000001    0.405738    0.641635    0.000003    0.157486
O     0.012311    0.000000   -1.140417    0.873275    0.000002    0.092622
O    -0.012312    0.000000    1.140417   -0.873273    0.000002   -0.092622
10
* Frequency(18)  535.0548
O    -1.531245   -1.934192    0.272148   -0.028606   -0.442726    0.389522
O    -1.531246    1.934191    0.272145   -0.028609    0.442720    0.389520
O     1.531245   -1.934192   -0.272149    0.028604   -0.442727   -0.389524
O     1.531246    1.934190   -0.272146    0.028608    0.442721   -0.389521
Si   -0.000000   -1.377444   -0.000000   -0.000000   -0.308574    0.000000
Si    0.000000    1.377443   -0.000000   -0.000000    0.308573    0.000000
Mg   -2.388544    0.000001   -0.401281   -0.641634    0.000003   -0.157484
Mg    2.388544    0.000001    0.401283    0.641635    0.000003    0.157486
O    -0.012388    0.000000   -1.143037    0.873275    0.000002    0.092622
O     0.012388    0.000000    1.143036   -0.873273    0.000002   -0.092622
10
* Frequency(18)  535.0548
O    -1.529443   -1.906293    0.247601   -0.028606   -0.442726    0.389522
O    -1.529443    1.906292    0.247598   -0.028609    0.442720    0.389520
O     1.529442   -1.906292   -0.247602    0.028604   -0.442727   -0.389524
O     1.529443    1.906291   -0.247599    0.028608    0.442721   -0.389521
Si   -0.000000   -1.357998   -0.000000   -0.000000   -0.308574    0.000000
Si    0.000000    1.357998   -0.000000   -0.000000    0.308573    0.000000
Mg   -2.348110    0.000001   -0.391357   -0.641634    0.000003   -0.157484
Mg    2.348110    0.000001    0.391359    0.641635    0.000003    0.157486
O    -0.067420    0.000000   -1.148873    0.873275    0.000002    0.092622
O     0.067419    0.000000    1.148873   -0.873273    0.000002   -0.092622
10
* Frequency(18)  535.0548
O    -1.526842   -1.866040    0.212185   -0.028606   -0.442726    0.389522
O    -1.526842    1.866039    0.212183   -0.028609    0.442720    0.389520
O     1.526841   -1.866039   -0.212186    0.028604   -0.442727   -0.389524
O     1.526842    1.866038   -0.212183    0.028608    0.442721   -0.389521
Si   -0.000000   -1.329942   -0.000000   -0.000000   -0.308574    0.000000
Si    0.000000    1.329942   -0.000000   -0.000000    0.308573    0.000000
Mg   -2.289772    0.000000   -0.377038   -0.641634    0.000003   -0.157484
Mg    2.289772    0.000001    0.377040    0.641635    0.000003    0.157486
O    -0.146820    0.000000   -1.157295    0.873275    0.000002    0.092622
O     0.146819    0.000000    1.157295   -0.873273    0.000002   -0.092622
10
* Frequency(18)  535.0548
O    -1.523724   -1.817794    0.169738   -0.028606   -0.442726    0.389522
O    -1.523724    1.817794    0.169735   -0.028609    0.442720    0.389520
O     1.523724   -1.817793   -0.169738    0.028604   -0.442727   -0.389524
O     1.523725    1.817794   -0.169736    0.028608    0.442721   -0.389521
Si   -0.000000   -1.296316   -0.000001   -0.000000   -0.308574    0.000000
Si    0.000000    1.296316   -0.000000   -0.000000    0.308573    0.000000
Mg   -2.219850    0.000000   -0.359877   -0.641634    0.000003   -0.157484
Mg    2.219850    0.000000    0.359878    0.641635    0.000003    0.157486
O    -0.241983   -0.000000   -1.167388    0.873275    0.000002    0.092622
O     0.241982   -0.000000    1.167388   -0.873273    0.000002   -0.092622
10
* Frequency(18)  535.0548
O    -1.520428   -1.766785    0.124858   -0.028606   -0.442726    0.389522
O    -1.520428    1.766785    0.124856   -0.028609    0.442720    0.389520
O     1.520429   -1.766784   -0.124858    0.028604   -0.442727   -0.389524
O     1.520429    1.766785   -0.124857    0.028608    0.442721   -0.389521
Si   -0.000000   -1.260763   -0.000001   -0.000000   -0.308574    0.000000
Si    0.000000    1.260763   -0.000000   -0.000000    0.308573    0.000000
Mg   -2.145924   -0.000000   -0.341732   -0.641634    0.000003   -0.157484
Mg    2.145924   -0.000000    0.341733    0.641635    0.000003    0.157486
O    -0.342599   -0.000000   -1.178060    0.873275    0.000002    0.092622
O     0.342598   -0.000000    1.178059   -0.873273    0.000002   -0.092622
10
* Frequency(18)  535.0548
O    -1.517311   -1.718540    0.082411   -0.028606   -0.442726    0.389522
O    -1.517310    1.718541    0.082409   -0.028609    0.442720    0.389520
O     1.517312   -1.718539   -0.082410    0.028604   -0.442727   -0.389524
O     1.517311    1.718540   -0.082409    0.028608    0.442721   -0.389521
Si    0.000000   -1.227137   -0.000001   -0.000000   -0.308574    0.000000
Si    0.000000    1.227137   -0.000000   -0.000000    0.308573    0.000000
Mg   -2.076003   -0.000001   -0.324570   -0.641634    0.000003   -0.157484
Mg    2.076002   -0.000000    0.324571    0.641635    0.000003    0.157486
O    -0.437763   -0.000001   -1.188153    0.873275    0.000002    0.092622
O     0.437761   -0.000000    1.188153   -0.873273    0.000002   -0.092622
10
* Frequency(18)  535.0548
O    -1.514710   -1.678286    0.046995   -0.028606   -0.442726    0.389522
O    -1.514709    1.678288    0.046993   -0.028609    0.442720    0.389520
O     1.514711   -1.678285   -0.046994    0.028604   -0.442727   -0.389524
O     1.514710    1.678287   -0.046993    0.028608    0.442721   -0.389521
Si    0.000000   -1.199080   -0.000001   -0.000000   -0.308574    0.000000
Si    0.000000    1.199081   -0.000000   -0.000000    0.308573    0.000000
Mg   -2.017664   -0.000001   -0.310252   -0.641634    0.000003   -0.157484
Mg    2.017664   -0.000001    0.310252    0.641635    0.000003    0.157486
O    -0.517162   -0.000001   -1.196574    0.873275    0.000002    0.092622
O     0.517161   -0.000001    1.196574   -0.873273    0.000002   -0.092622
10
* Frequency(18)  535.0548
O    -1.512908   -1.650387    0.022448   -0.028606   -0.442726    0.389522
O    -1.512906    1.650389    0.022447   -0.028609    0.442720    0.389520
O     1.512908   -1.650386   -0.022447    0.028604   -0.442727   -0.389524
O     1.512907    1.650388   -0.022447    0.028608    0.442721   -0.389521
Si    0.000000   -1.179635   -0.000001   -0.000000   -0.308574    0.000000
Si    0.000000    1.179635   -0.000000   -0.000000    0.308573    0.000000
Mg   -1.977230   -0.000001   -0.300327   -0.641634    0.000003   -0.157484
Mg    1.977230   -0.000001    0.300328    0.641635    0.000003    0.157486
O    -0.572194   -0.000001   -1.202411    0.873275    0.000002    0.092622
O     0.572192   -0.000001    1.202411   -0.873273    0.000002   -0.092622
10
* Frequency(18)  535.0548
O    -1.512098   -1.637865    0.011431   -0.028606   -0.442726    0.389522
O    -1.512097    1.637867    0.011430   -0.028609    0.442720    0.389520
O     1.512099   -1.637864   -0.011430    0.028604   -0.442727   -0.389524
O     1.512098    1.637866   -0.011429    0.028608    0.442721   -0.389521
Si    0.000000   -1.170907   -0.000001   -0.000000   -0.308574    0.000000
Si    0.000000    1.170908   -0.000000   -0.000000    0.308573    0.000000
Mg   -1.959082   -0.000001   -0.295873   -0.641634    0.000003   -0.157484
Mg    1.959082   -0.000001    0.295874    0.641635    0.000003    0.157486
O    -0.596894   -0.000001   -1.205031    0.873275    0.000002    0.092622
O     0.596892   -0.000001    1.205031   -0.873273    0.000002   -0.092622
10
* Frequency(18)  535.0548
O    -1.512371   -1.642077    0.015137   -0.028606   -0.442726    0.389522
O    -1.512369    1.642079    0.015136   -0.028609    0.442720    0.389520
O     1.512371   -1.642076   -0.015136    0.028604   -0.442727   -0.389524
O     1.512370    1.642079   -0.015135    0.028608    0.442721   -0.389521
Si    0.000000   -1.173843   -0.000001   -0.000000   -0.308574    0.000000
Si    0.000000    1.173843   -0.000000   -0.000000    0.308573    0.000000
Mg   -1.965187   -0.000001   -0.297371   -0.641634    0.000003   -0.157484
Mg    1.965187   -0.000001    0.297372    0.641635    0.000003    0.157486
O    -0.588585   -0.000001   -1.204149    0.873275    0.000002    0.092622
O     0.588583   -0.000001    1.204149   -0.873273    0.000002   -0.092622
10
* Frequency(18)  535.0548
O    -1.513695   -1.662568    0.033165   -0.028606   -0.442726    0.389522
O    -1.513693    1.662569    0.033163   -0.028609    0.442720    0.389520
O     1.513695   -1.662566   -0.033164    0.028604   -0.442727   -0.389524
O     1.513694    1.662568   -0.033163    0.028608    0.442721   -0.389521
Si    0.000000   -1.188125   -0.000001   -0.000000   -0.308574    0.000000
Si    0.000000    1.188125   -0.000000   -0.000000    0.308573    0.000000
Mg   -1.994883   -0.000001   -0.304660   -0.641634    0.000003   -0.157484
Mg    1.994883   -0.000001    0.304661    0.641635    0.000003    0.157486
O    -0.548168   -0.000001   -1.199863    0.873275    0.000002    0.092622
O     0.548166   -0.000001    1.199863   -0.873273    0.000002   -0.092622
10
* Frequency(18)  535.0548
O    -1.515927   -1.697115    0.063561   -0.028606   -0.442726    0.389522
O    -1.515926    1.697116    0.063559   -0.028609    0.442720    0.389520
O     1.515927   -1.697114   -0.063560    0.028604   -0.442727   -0.389524
O     1.515927    1.697116   -0.063559    0.028608    0.442721   -0.389521
Si    0.000000   -1.212204   -0.000001   -0.000000   -0.308574    0.000000
Si    0.000000    1.212204   -0.000000   -0.000000    0.308573    0.000000
Mg   -2.044952   -0.000001   -0.316949   -0.641634    0.000003   -0.157484
Mg    2.044952   -0.000001    0.316950    0.641635    0.000003    0.157486
O    -0.480023   -0.000001   -1.192635    0.873275    0.000002    0.092622
O     0.480022   -0.000001    1.192635   -0.873273    0.000002   -0.092622
10
* Frequency(18)  535.0548
O    -1.518825   -1.741976    0.103031   -0.028606   -0.442726    0.389522
O    -1.518825    1.741977    0.103029   -0.028609    0.442720    0.389520
O     1.518826   -1.741975   -0.103031    0.028604   -0.442727   -0.389524
O     1.518825    1.741976   -0.103029    0.028608    0.442721   -0.389521
Si    0.000000   -1.243471   -0.000001   -0.000000   -0.308574    0.000000
Si    0.000000    1.243471   -0.000000   -0.000000    0.308573    0.000000
Mg   -2.109969   -0.000000   -0.332907   -0.641634    0.000003   -0.157484
Mg    2.109969   -0.000000    0.332908    0.641635    0.000003    0.157486
O    -0.391534   -0.000001   -1.183250    0.873275    0.000002    0.092622
O     0.391533   -0.000000    1.183250   -0.873273    0.000002   -0.092622
10
* Frequency(18)  535.0548
O    -1.522076   -1.792290    0.147298   -0.028606   -0.442726    0.389522
O    -1.522076    1.792290    0.147296   -0.028609    0.442720    0.389520
O     1.522077   -1.792289   -0.147298    0.028604   -0.442727   -0.389524
O     1.522077    1.792289   -0.147296    0.028608    0.442721   -0.389521
Si   -0.000000   -1.278539   -0.000001   -0.000000   -0.308574    0.000000
Si    0.000000    1.278539   -0.000000   -0.000000    0.308573    0.000000
Mg   -2.182887   -0.000000   -0.350804   -0.641634    0.000003   -0.157484
Mg    2.182887    0.000000    0.350806    0.641635    0.000003    0.157486
O    -0.292291   -0.000000   -1.172724    0.873275    0.000002    0.092622
O     0.292290   -0.000000    1.172724   -0.873273    0.000002   -0.092622
